#	Name:			PISM00602
#	Creating user name:	baoopengkun
#	Creation time:		Fri Jan 04 21:50:24 2019

#	Modifying user name:	baoopengkun
#	Modification time:	Fri Jan 04 21:53:30 2019

@<TRIPOS>MOLECULE
PISM00602
   39    41     1     1     0
SMALL
GAST_HUCK


@<TRIPOS>ATOM
      1 C1         -2.4820   -1.4757    8.4784 C.2       1 <1>         0.0618 
      2 N2         -3.5421   -1.8428    7.5807 N.2       1 <1>        -0.2870 
      3 C3         -3.1125   -1.9265    6.4048 C.2       1 <1>         0.1268 
      4 N4         -1.8411   -1.6643    6.3739 N.pl3     1 <1>        -0.1847 
      5 N5         -1.4989   -1.3818    7.6625 N.2       1 <1>        -0.1910 
      6 C6         -0.9611   -1.6053    5.2154 C.3       1 <1>         0.0805 
      7 C7         -0.2358   -2.9675    4.9842 C.3       1 <1>         0.0953 
      8 C8         -1.2067   -4.1098    4.5608 C.3       1 <1>         0.0167 
      9 C9         -0.3850   -5.4000    4.4435 C.ar      1 <1>         0.0767 
     10 C10        -0.2444   -6.2804    5.5206 C.ar      1 <1>         0.1855 
     11 F11        -0.8841   -6.0803    6.6723 F         1 <1>        -0.1726 
     12 C12         0.5887   -7.3892    5.3625 C.ar      1 <1>         0.0547 
     13 N13         1.2103   -7.6040    4.1849 N.ar      1 <1>        -0.2753 
     14 C14         1.0229   -6.7661    3.1454 C.ar      1 <1>         0.0761 
     15 N15         0.2248   -5.6866    3.2731 N.ar      1 <1>        -0.2667 
     16 C16         0.9322   -2.8786    3.9710 C.ar      1 <1>         0.0118 
     17 C17         2.0802   -3.6651    4.1541 C.ar      1 <1>         0.1627 
     18 F18         2.1978   -4.4859    5.1945 F         1 <1>        -0.1564 
     19 C19         3.1378   -3.6146    3.2436 C.ar      1 <1>         0.0379 
     20 C20         3.0735   -2.7649    2.1394 C.ar      1 <1>         0.1648 
     21 C21         1.9427   -1.9701    1.9479 C.ar      1 <1>        -0.0007 
     22 C22         0.8795   -2.0323    2.8538 C.ar      1 <1>        -0.0396 
     23 O23         0.2814   -3.3780    6.2632 O.3       1 <1>        -0.4242 
     24 C24        -1.9587   -3.8720    3.2215 C.3       1 <1>        -0.0551 
     25 F25         4.0830   -2.7125    1.2751 F         1 <1>        -0.1572 
     26 H1         -2.5060   -1.3178    9.5555 H         1 <1>         0.0863 
     27 H2         -3.7391   -2.1812    5.5516 H         1 <1>         0.1361 
     28 H3         -0.2026   -0.8376    5.4326 H         1 <1>         0.0559 
     29 H4         -1.5443   -1.2606    4.3520 H         1 <1>         0.0559 
     30 H5         -1.9612   -4.2426    5.3530 H         1 <1>         0.0425 
     31 H6          0.7357   -8.0778    6.1864 H         1 <1>         0.0896 
     32 H7          1.5172   -6.9617    2.2004 H         1 <1>         0.1070 
     33 H8          4.0119   -4.2380    3.3953 H         1 <1>         0.0674 
     34 H9          1.8956   -1.3061    1.0906 H         1 <1>         0.0665 
     35 H10         0.0137   -1.4113    2.6606 H         1 <1>         0.0822 
     36 H11         0.9012   -2.7649    6.6443 H         1 <1>         0.1944 
     37 H12        -1.2551   -3.6936    2.3956 H         1 <1>         0.0251 
     38 H13        -2.6538   -3.0233    3.2840 H         1 <1>         0.0251 
     39 H14        -2.5509   -4.7676    2.9758 H         1 <1>         0.0251 
@<TRIPOS>BOND
     1    2    1 1    
     2    2    3 2    
     3    3    4 1    
     4    4    5 1    
     5    1    5 2    
     6    4    6 1    
     7    6    7 1    
     8    7    8 1    
     9    8    9 1    
    10    9   10 ar   
    11   10   11 1    
    12   10   12 ar   
    13   12   13 ar   
    14   14   13 ar   
    15   15   14 ar   
    16    9   15 ar   
    17    7   16 1    
    18   16   17 ar   
    19   17   18 1    
    20   17   19 ar   
    21   19   20 ar   
    22   21   20 ar   
    23   22   21 ar   
    24   16   22 ar   
    25    7   23 1    
    26    8   24 1    
    27   20   25 1    
    28    1   26 1    
    29    3   27 1    
    30    6   28 1    
    31    6   29 1    
    32    8   30 1    
    33   12   31 1    
    34   14   32 1    
    35   19   33 1    
    36   21   34 1    
    37   22   35 1    
    38   23   36 1    
    39   24   37 1    
    40   24   38 1    
    41   24   39 1    
@<TRIPOS>SUBSTRUCTURE
     1 ****        2 TEMP              0 ****  ****    0 ROOT 
@<TRIPOS>NORMAL
@<TRIPOS>FF_PBC
FORCE_FIELD_SETUP_FEATURE Force Field Setup information
v1.0  0 0.000000 0.000000 0.000000 0.000000 0.000000 0.000000 NONE 0 0 0 0 1 0 0 0 0 0 0 0 0
