#	Name:			PISM01116
#	Creating user name:	Qinrunwen
#	Creation time:		Tue Apr 02 21:08:59 2019

#	Modifying user name:	Qinrunwen
#	Modification time:	Tue Apr 02 21:09:17 2019

@<TRIPOS>MOLECULE
PISM01116
   43    47     1     1     0
SMALL
GAST_HUCK


@<TRIPOS>ATOM
      1 C1         12.8941    7.6338   -2.5139 C.ar      1 <1>        -0.0467 
      2 C2         13.3754    8.9153   -2.7845 C.ar      1 <1>         0.0424 
      3 C3         13.2495    9.9318   -1.8486 C.ar      1 <1>        -0.0006 
      4 C4         12.6493    9.7138   -0.6082 C.ar      1 <1>        -0.0619 
      5 C5         12.1735    8.4280   -0.3269 C.ar      1 <1>        -0.0688 
      6 C6         12.2929    7.3994   -1.2716 C.ar      1 <1>        -0.0678 
      7 C7         13.8490   11.1930   -2.4128 C.2       1 <1>         0.0665 
      8 C8         14.3504   11.0238   -3.6428 C.2       1 <1>         0.1286 
      9 S9         14.1671    9.3512   -4.2985 S.3       1 <1>        -0.0212 
     10 C10        15.0046   12.0947   -4.4219 C.2       1 <1>         0.2589 
     11 N11        16.1561   11.8963   -5.0129 N.pl3     1 <1>        -0.1832 
     12 Cl12       13.8906   12.7056   -1.5326 Cl        1 <1>        -0.0770 
     13 O13        14.4138   13.1608   -4.4841 O.2       1 <1>        -0.3620 
     14 C14        16.7767   10.7030   -4.8888 C.ar      1 <1>         0.0842 
     15 C15        16.8325    9.8470   -5.9881 C.ar      1 <1>        -0.0144 
     16 C16        16.1774   10.3282   -7.2821 C.3       1 <1>        -0.0129 
     17 C17        17.0421   11.4602   -7.8837 C.3       1 <1>        -0.0129 
     18 C18        17.2104   12.7326   -7.0287 C.ar      1 <1>        -0.0144 
     19 C19        16.7707   12.8904   -5.7019 C.ar      1 <1>         0.0842 
     20 C20        16.9827   14.1108   -5.0482 C.ar      1 <1>        -0.0422 
     21 C21        17.5949   15.1841   -5.6980 C.ar      1 <1>        -0.0781 
     22 C22        18.0368   15.0285   -7.0121 C.ar      1 <1>        -0.0799 
     23 C23        17.8571   13.8041   -7.6595 C.ar      1 <1>        -0.0690 
     24 C24        17.3390   10.3243   -3.6665 C.ar      1 <1>        -0.0422 
     25 C25        17.9484    9.0732   -3.5412 C.ar      1 <1>        -0.0781 
     26 C26        18.0109    8.2148   -4.6433 C.ar      1 <1>        -0.0799 
     27 C27        17.4631    8.6039   -5.8701 C.ar      1 <1>        -0.0690 
     28 H1         12.9852    6.8416   -3.2504 H         1 <1>         0.0576 
     29 H2         12.5555   10.5182    0.1140 H         1 <1>         0.0594 
     30 H3         11.7067    8.2269    0.6326 H         1 <1>         0.0564 
     31 H4         11.9148    6.4082   -1.0376 H         1 <1>         0.0589 
     32 H5         15.1596   10.6989   -7.0777 H         1 <1>         0.0424 
     33 H6         16.0930    9.4958   -8.0000 H         1 <1>         0.0424 
     34 H7         16.5884   11.7571   -8.8433 H         1 <1>         0.0424 
     35 H8         18.0473   11.0600   -8.0914 H         1 <1>         0.0424 
     36 H9         16.6736   14.2316   -4.0146 H         1 <1>         0.0519 
     37 H10        17.7276   16.1319   -5.1841 H         1 <1>         0.0530 
     38 H11        18.5184   15.8550   -7.5262 H         1 <1>         0.0503 
     39 H12        18.2303   13.6915   -8.6729 H         1 <1>         0.0525 
     40 H13        17.2991   11.0003   -2.8188 H         1 <1>         0.0519 
     41 H14        18.3732    8.7688   -2.5892 H         1 <1>         0.0530 
     42 H15        18.4855    7.2436   -4.5447 H         1 <1>         0.0503 
     43 H16        17.5294    7.9379   -6.7240 H         1 <1>         0.0525 
@<TRIPOS>BOND
     1    2    1 ar   
     2    2    3 ar   
     3    3    4 ar   
     4    4    5 ar   
     5    5    6 ar   
     6    1    6 ar   
     7    3    7 1    
     8    7    8 2    
     9    8    9 1    
    10    2    9 1    
    11    8   10 1    
    12   10   11 1    
    13    7   12 1    
    14   10   13 2    
    15   11   14 1    
    16   14   15 ar   
    17   15   16 1    
    18   16   17 1    
    19   17   18 1    
    20   18   19 ar   
    21   11   19 1    
    22   19   20 ar   
    23   20   21 ar   
    24   21   22 ar   
    25   22   23 ar   
    26   18   23 ar   
    27   14   24 ar   
    28   24   25 ar   
    29   25   26 ar   
    30   26   27 ar   
    31   15   27 ar   
    32    1   28 1    
    33    4   29 1    
    34    5   30 1    
    35    6   31 1    
    36   16   32 1    
    37   16   33 1    
    38   17   34 1    
    39   17   35 1    
    40   20   36 1    
    41   21   37 1    
    42   22   38 1    
    43   23   39 1    
    44   24   40 1    
    45   25   41 1    
    46   26   42 1    
    47   27   43 1    
@<TRIPOS>SUBSTRUCTURE
     1 ****        2 TEMP              0 ****  ****    0 ROOT 
@<TRIPOS>NORMAL
@<TRIPOS>FF_PBC
FORCE_FIELD_SETUP_FEATURE Force Field Setup information
v1.0  0 0.000000 0.000000 0.000000 0.000000 0.000000 0.000000 NONE 0 0 0 0 1 0 0 0 0 0 0 0 0
