#	Name:			PISM00302
#	Creating user name:	malab
#	Creation time:		Fri Apr 05 17:04:19 2019

#	Modifying user name:	malab
#	Modification time:	Fri Apr 05 17:05:32 2019

@<TRIPOS>MOLECULE
PISM00302
   68    69     1     1     0
SMALL
GAST_HUCK


@<TRIPOS>ATOM
      1 N1        -26.2404   28.1565   46.4558 N.2       1 <1>        -0.1722 
      2 C2        -27.1428   28.8511   45.8732 C.2       1 <1>         0.0658 
      3 N3        -26.8673   28.5145   44.5086 N.2       1 <1>        -0.2821 
      4 C4        -25.9028   27.7155   44.4376 C.2       1 <1>         0.1497 
      5 N5        -25.4356   27.4309   45.6232 N.pl3     1 <1>        -0.1217 
      6 C6        -24.4425   26.6327   45.9440 C.2       1 <1>         0.1373 
      7 C7        -24.1541   26.5439   47.4397 C.3       1 <1>         0.1335 
      8 C8        -23.1961   27.6614   47.9711 C.3       1 <1>         0.0047 
      9 C9        -23.7917   29.0828   47.7542 C.3       1 <1>        -0.0552 
     10 C10       -22.9632   27.4505   49.4990 C.3       1 <1>        -0.0552 
     11 C11       -21.8204   27.5816   47.2464 C.3       1 <1>        -0.0552 
     12 C12       -23.7293   25.9429   45.0335 C.2       1 <1>        -0.0334 
     13 C13       -22.6159   24.9742   45.3698 C.ar      1 <1>        -0.0498 
     14 C14       -22.8774   23.8027   46.0878 C.ar      1 <1>        -0.0677 
     15 C15       -21.8259   22.9742   46.4889 C.ar      1 <1>        -0.0696 
     16 C16       -20.5113   23.2952   46.1398 C.ar      1 <1>        -0.0549 
     17 C17       -20.2579   24.4121   45.3384 C.ar      1 <1>         0.0160 
     18 C18       -21.3105   25.2442   44.9465 C.ar      1 <1>        -0.0526 
     19 C19       -19.4235   22.4764   46.6106 C.1       1 <1>         0.0000 
     20 C20       -18.5180   21.7948   47.0160 C.1       1 <1>        -0.0688 
     21 C21       -17.4250   20.9738   47.5199 C.3       1 <1>         0.1087 
     22 O22       -16.7229   20.3972   46.4032 O.3       1 <1>        -0.3650 
     23 C23       -15.6170   19.5653   46.8064 C.3       1 <1>         0.0722 
     24 C24       -14.9229   18.9974   45.5468 C.3       1 <1>         0.0711 
     25 O25       -13.8244   18.1663   45.9693 O.3       1 <1>        -0.3752 
     26 C26       -13.0784   17.6045   44.8722 C.3       1 <1>         0.0711 
     27 C27       -11.9600   16.7078   45.4520 C.3       1 <1>         0.0711 
     28 O28       -11.1910   16.1581   44.3646 O.3       1 <1>        -0.3752 
     29 C29       -10.1587   15.2512   44.7996 C.3       1 <1>         0.0711 
     30 C30        -9.3732   14.7656   43.5585 C.3       1 <1>         0.0706 
     31 O31        -8.3681   13.8244   43.9857 O.3       1 <1>        -0.3807 
     32 C32        -7.5862   13.2899   42.9001 C.3       1 <1>         0.0365 
     33 O33       -25.3790   26.5678   48.1950 O.3       1 <1>        -0.3711 
     34 H1        -27.9023   29.5083   46.2935 H         1 <1>         0.0000 
     35 H2        -25.5852   27.3723   43.4560 H         1 <1>         0.0000 
     36 H3        -23.6724   25.5897   47.6949 H         1 <1>         0.0000 
     37 H4        -23.1143   29.8464   48.1662 H         1 <1>         0.0000 
     38 H5        -24.7623   29.1834   48.2628 H         1 <1>         0.0000 
     39 H6        -23.9240   29.2976   46.6833 H         1 <1>         0.0000 
     40 H7        -23.9111   27.5253   50.0530 H         1 <1>         0.0000 
     41 H8        -22.2749   28.2100   49.9012 H         1 <1>         0.0000 
     42 H9        -22.5263   26.4594   49.6965 H         1 <1>         0.0000 
     43 H10       -21.3654   26.5896   47.3867 H         1 <1>         0.0000 
     44 H11       -21.1230   28.3338   47.6458 H         1 <1>         0.0000 
     45 H12       -21.9366   27.7711   46.1695 H         1 <1>         0.0000 
     46 H13       -23.8851   26.0179   43.9610 H         1 <1>         0.0000 
     47 H14       -23.8993   23.5339   46.3359 H         1 <1>         0.0000 
     48 H15       -22.0314   22.0825   47.0728 H         1 <1>         0.0000 
     49 H16       -19.2441   24.6364   45.0225 H         1 <1>         0.0000 
     50 H17       -21.1115   26.1055   44.3169 H         1 <1>         0.0000 
     51 H18       -17.8570   20.1938   48.1659 H         1 <1>         0.0000 
     52 H19       -16.7641   21.6210   48.1168 H         1 <1>         0.0000 
     53 H20       -15.9705   18.7258   47.4277 H         1 <1>         0.0000 
     54 H21       -14.8816   20.1510   47.3823 H         1 <1>         0.0000 
     55 H22       -14.5636   19.8359   44.9282 H         1 <1>         0.0000 
     56 H23       -15.6532   18.4099   44.9665 H         1 <1>         0.0000 
     57 H24       -12.6245   18.4031   44.2625 H         1 <1>         0.0000 
     58 H25       -13.7293   16.9894   44.2292 H         1 <1>         0.0000 
     59 H26       -12.4257   15.9065   46.0490 H         1 <1>         0.0000 
     60 H27       -11.3148   17.3148   46.1081 H         1 <1>         0.0000 
     61 H28       -10.6031   14.3779   45.3047 H         1 <1>         0.0000 
     62 H29        -9.4627   15.7483   45.4953 H         1 <1>         0.0000 
     63 H30        -8.9083   15.6348   43.0648 H         1 <1>         0.0000 
     64 H31       -10.0782   14.2906   42.8565 H         1 <1>         0.0000 
     65 H32        -6.8630   12.5799   43.3277 H         1 <1>         0.0000 
     66 H33        -7.0293   14.0815   42.3750 H         1 <1>         0.0000 
     67 H34        -8.2185   12.7485   42.1795 H         1 <1>         0.0000 
     68 H35       -25.9772   25.8686   47.9513 H         1 <1>         0.0000 
@<TRIPOS>BOND
     1    1    2 2    
     2    2    3 1    
     3    4    3 2    
     4    5    4 1    
     5    5    1 1    
     6    6    5 1    
     7    6    7 1    
     8    7    8 1    
     9    8    9 1    
    10    8   10 1    
    11    8   11 1    
    12   12    6 2    
    13   13   12 1    
    14   14   13 ar   
    15   15   14 ar   
    16   16   15 ar   
    17   16   17 ar   
    18   17   18 ar   
    19   18   13 ar   
    20   19   20 3    
    21   16   19 1    
    22   20   21 1    
    23   21   22 1    
    24   22   23 1    
    25   23   24 1    
    26   24   25 1    
    27   25   26 1    
    28   26   27 1    
    29   27   28 1    
    30   28   29 1    
    31   29   30 1    
    32   30   31 1    
    33   31   32 1    
    34    7   33 1    
    35    2   34 1    
    36    4   35 1    
    37    7   36 1    
    38    9   37 1    
    39    9   38 1    
    40    9   39 1    
    41   10   40 1    
    42   10   41 1    
    43   10   42 1    
    44   11   43 1    
    45   11   44 1    
    46   11   45 1    
    47   12   46 1    
    48   14   47 1    
    49   15   48 1    
    50   17   49 1    
    51   18   50 1    
    52   21   51 1    
    53   21   52 1    
    54   23   53 1    
    55   23   54 1    
    56   24   55 1    
    57   24   56 1    
    58   26   57 1    
    59   26   58 1    
    60   27   59 1    
    61   27   60 1    
    62   29   61 1    
    63   29   62 1    
    64   30   63 1    
    65   30   64 1    
    66   32   65 1    
    67   32   66 1    
    68   32   67 1    
    69   33   68 1    
@<TRIPOS>SUBSTRUCTURE
     1 ****       20 TEMP              0 ****  ****    0 ROOT 
@<TRIPOS>NORMAL
@<TRIPOS>FF_PBC
FORCE_FIELD_SETUP_FEATURE Force Field Setup information
v1.0  0 0.000000 0.000000 0.000000 0.000000 0.000000 0.000000 NONE 0 0 0 0 0 0 0 0 0 0 0 0 0
