#	Name:			PISM00903.1
#	Creating user name:	baoopengkun
#	Creation time:		Fri Dec 14 10:23:48 2018

#	Modifying user name:	baoopengkun
#	Modification time:	Fri Dec 14 10:27:08 2018

@<TRIPOS>MOLECULE
PISM00903.1
   40    41     1     1     0
SMALL
GAST_HUCK


@<TRIPOS>ATOM
      1 C1         23.1347   19.7043   -9.7792 C.ar      1 <1>        -0.0508 
      2 C2         23.3056   20.8588   -9.0008 C.ar      1 <1>        -0.0510 
      3 C3         23.1683   20.7763   -7.6099 C.ar      1 <1>        -0.0736 
      4 C4         22.8431   19.5644   -6.9958 C.ar      1 <1>        -0.0737 
      5 C5         22.6489   18.4164   -7.7689 C.ar      1 <1>        -0.0545 
      6 C6         22.7987   18.4953   -9.1572 C.ar      1 <1>        -0.0655 
      7 C7         23.6399   22.2106   -9.6499 C.3       1 <1>        -0.0368 
      8 C8         23.3126   19.7469  -11.3049 C.3       1 <1>        -0.0351 
      9 C9         22.2803   17.0833   -7.1033 C.3       1 <1>        -0.0036 
     10 C10        23.5707   16.2828   -6.8028 C.3       1 <1>         0.0414 
     11 N11        23.2276   15.0272   -6.1383 N.am      1 <1>        -0.2605 
     12 C12        22.7379   13.9964   -6.8574 C.2       1 <1>         0.3248 
     13 O13        22.5674   14.0388   -8.0644 O.2       1 <1>        -0.3773 
     14 O14        22.4498   12.9269   -6.1054 O.3       1 <1>        -0.2139 
     15 C15        21.9765   11.7969   -6.8576 C.3       1 <1>         0.2419 
     16 C16        20.7368   12.0913   -7.6695 C.2       1 <1>        -0.0022 
     17 C17        20.9481   11.7922   -8.9502 C.2       1 <1>         0.0291 
     18 C18        22.3260   11.3088   -8.9725 C.2       1 <1>         0.2494 
     19 O19        22.9562   11.3218   -7.8032 O.3       1 <1>        -0.2315 
     20 C20        19.9962   11.9349  -10.1057 C.3       1 <1>        -0.0323 
     21 O21        22.8663   10.9132   -9.9913 O.2       1 <1>        -0.3691 
     22 H1         23.3145   21.6557   -6.9909 H         1 <1>         0.0521 
     23 H2         22.7438   19.5203   -5.9158 H         1 <1>         0.0482 
     24 H3         22.6518   17.6015   -9.7546 H         1 <1>         0.0477 
     25 H4         24.6841   22.1973   -9.9957 H         1 <1>         0.0363 
     26 H5         23.5205   23.0444   -8.9420 H         1 <1>         0.0363 
     27 H6         22.9752   22.4003  -10.5052 H         1 <1>         0.0363 
     28 H7         24.2407   20.2750  -11.5678 H         1 <1>         0.0375 
     29 H8         22.4558   20.2703  -11.7543 H         1 <1>         0.0375 
     30 H9         23.3679   18.7375  -11.7394 H         1 <1>         0.0375 
     31 H10        21.6202   16.5032   -7.7674 H         1 <1>         0.0432 
     32 H11        21.7325   17.2623   -6.1646 H         1 <1>         0.0432 
     33 H12        24.2293   16.8913   -6.1596 H         1 <1>         0.0540 
     34 H13        24.1148   16.0875   -7.7424 H         1 <1>         0.0540 
     35 H14        23.3322   14.9510   -5.1450 H         1 <1>         0.1869 
     36 H15        21.7561   10.9832   -6.1485 H         1 <1>         0.1194 
     37 H16        19.8094   12.4918   -7.2626 H         1 <1>         0.0704 
     38 H17        20.5494   11.9138  -11.0567 H         1 <1>         0.0347 
     39 H18        19.4534   12.8891  -10.0315 H         1 <1>         0.0347 
     40 H19        19.2740   11.1054  -10.0921 H         1 <1>         0.0347 
@<TRIPOS>BOND
     1    2    1 ar   
     2    2    3 ar   
     3    3    4 ar   
     4    4    5 ar   
     5    5    6 ar   
     6    1    6 ar   
     7    2    7 1    
     8    1    8 1    
     9    5    9 1    
    10    9   10 1    
    11   10   11 1    
    12   11   12 am   
    13   12   13 2    
    14   12   14 1    
    15   14   15 1    
    16   15   16 1    
    17   16   17 2    
    18   17   18 1    
    19   18   19 1    
    20   15   19 1    
    21   17   20 1    
    22   18   21 2    
    23    3   22 1    
    24    4   23 1    
    25    6   24 1    
    26    7   25 1    
    27    7   26 1    
    28    7   27 1    
    29    8   28 1    
    30    8   29 1    
    31    8   30 1    
    32    9   31 1    
    33    9   32 1    
    34   10   33 1    
    35   10   34 1    
    36   11   35 1    
    37   15   36 1    
    38   16   37 1    
    39   20   38 1    
    40   20   39 1    
    41   20   40 1    
@<TRIPOS>SUBSTRUCTURE
     1 ****        2 TEMP              0 ****  ****    0 ROOT 
@<TRIPOS>NORMAL
@<TRIPOS>FF_PBC
FORCE_FIELD_SETUP_FEATURE Force Field Setup information
v1.0  0 0.000000 0.000000 0.000000 0.000000 0.000000 0.000000 NONE 0 0 0 0 1 0 0 0 0 0 0 0 0
