#	Name:			PISM00779.1
#	Creating user name:	baoopengkun
#	Creation time:		Fri Nov 30 22:20:33 2018

#	Modifying user name:	baoopengkun
#	Modification time:	Fri Nov 30 22:21:49 2018

@<TRIPOS>MOLECULE
PISM00779.1
   26    27     1     2     0
SMALL
GAST_HUCK


@<TRIPOS>ATOM
      1 O1        -27.6437   11.1616  -16.0121 O.3       1 <1>        -0.2001 
      2 C2        -26.5736   11.1114  -16.8187 C.2       1 <1>         0.1360 
      3 C3        -26.4452   11.9324  -17.8694 C.2       1 <1>         0.0087 
      4 C4        -27.4754   12.9311  -18.1904 C.2       1 <1>         0.0834 
      5 C5        -28.5413   12.9894  -17.3790 C.2       1 <1>         0.0091 
      6 C6        -28.6180   12.0508  -16.2433 C.2       1 <1>         0.2318 
      7 C7        -25.5595   10.0650  -16.4311 C.3       1 <1>         0.0203 
      8 O8        -29.5824   12.0778  -15.4959 O.2       1 <1>        -0.4094 
      9 O9        -27.2943   13.7299  -19.2633 O.3       1 <1>        -0.2683 
     10 C10       -28.3645   14.6082  -19.6621 C.3       1 <1>         0.2387 
     11 C11       -29.5360   13.8405  -20.2402 C.2       1 <1>        -0.0013 
     12 C12       -29.6989   14.1246  -21.5313 C.2       1 <1>         0.0292 
     13 C13       -28.6352   15.0798  -21.8077 C.2       1 <1>         0.2495 
     14 O14       -27.8625   15.3852  -20.7721 O.3       1 <1>        -0.2307 
     15 O15       -28.4623   15.5693  -22.9117 O.2       1 <1>        -0.3691 
     16 C16       -30.7277   13.5938  -22.4918 C.3       1 <1>        -0.0323 
     17 H1        -25.5681   11.8772  -18.5139 H         1 <1>         0.0341 
     18 H2        -29.3802   13.6760  -17.4662 H         1 <1>         0.0187 
     19 H3        -24.6905   10.0593  -17.1066 H         1 <1>         0.0520 
     20 H4        -26.0318    9.0714  -16.4596 H         1 <1>         0.0520 
     21 H5        -25.2060   10.2619  -15.4077 H         1 <1>         0.0520 
     22 H6        -28.6526   15.3319  -18.8836 H         1 <1>         0.1207 
     23 H7        -30.1724   13.1432  -19.6975 H         1 <1>         0.0706 
     24 H8        -31.3496   12.8204  -22.0160 H         1 <1>         0.0347 
     25 H9        -30.2229   13.1577  -23.3667 H         1 <1>         0.0347 
     26 H10       -31.3749   14.4188  -22.8245 H         1 <1>         0.0347 
@<TRIPOS>BOND
     1    2    1 1    
     2    2    3 2    
     3    3    4 1    
     4    4    5 2    
     5    5    6 1    
     6    1    6 1    
     7    2    7 1    
     8    6    8 2    
     9    4    9 1    
    10    9   10 1    
    11   10   11 1    
    12   11   12 2    
    13   12   13 1    
    14   13   14 1    
    15   10   14 1    
    16   13   15 2    
    17   12   16 1    
    18    3   17 1    
    19    5   18 1    
    20    7   19 1    
    21    7   20 1    
    22    7   21 1    
    23   10   22 1    
    24   11   23 1    
    25   16   24 1    
    26   16   25 1    
    27   16   26 1    
@<TRIPOS>SUBSTRUCTURE
     1 ****        2 TEMP              0 ****  ****    0 ROOT 
@<TRIPOS>NORMAL
@<TRIPOS>FF_PBC
FORCE_FIELD_SETUP_FEATURE Force Field Setup information
v1.0  0 0.000000 0.000000 0.000000 0.000000 0.000000 0.000000 NONE 0 0 0 0 0 0 0 0 0 0 0 0 0
@<TRIPOS>RENDERING_ATTRS
ANTIALIASED_LINES 
*
