#	Name:			PISM00682
#	Creating user name:	baoopengkun
#	Creation time:		Sat Jan 12 23:36:59 2019

#	Modifying user name:	baoopengkun
#	Modification time:	Sat Jan 12 23:38:43 2019

@<TRIPOS>MOLECULE
PISM00682
   55    56     1     1     0
SMALL
GAST_HUCK


@<TRIPOS>ATOM
      1 C1         -3.2971  -13.3352    3.5340 C.3       1 <1>        -0.0877 
      2 C2         -3.6372  -14.3576    2.4153 C.3       1 <1>        -0.0520 
      3 C3         -3.1156  -15.7738    2.8212 C.3       1 <1>        -0.0877 
      4 C4         -5.1911  -14.4692    2.3066 C.3       1 <1>        -0.0877 
      5 C5         -2.9695  -13.8542    1.1016 C.ar      1 <1>        -0.0568 
      6 C6         -1.6030  -14.0686    0.8652 C.ar      1 <1>        -0.0450 
      7 C7         -0.9854  -13.6680   -0.3232 C.ar      1 <1>        -0.0285 
      8 C8         -1.7020  -12.9477   -1.2832 C.ar      1 <1>        -0.0110 
      9 C9         -3.0560  -12.6944   -1.0462 C.ar      1 <1>        -0.0285 
     10 C10        -3.6819  -13.1602    0.1123 C.ar      1 <1>        -0.0450 
     11 C11        -1.0356  -12.4126   -2.5602 C.3       1 <1>        -0.0001 
     12 C12        -1.6875  -12.9406   -3.8767 C.3       1 <1>        -0.0166 
     13 C13        -2.0386  -11.7637   -4.8348 C.3       1 <1>        -0.0587 
     14 C14        -0.8995  -14.1153   -4.5473 C.3       1 <1>         0.0042 
     15 N15         0.5369  -13.9142   -4.8775 N.3       1 <1>        -0.2970 
     16 C16         0.9951  -12.6810   -5.5561 C.3       1 <1>         0.0251 
     17 C17         2.3428  -12.8683   -6.3069 C.3       1 <1>         0.0689 
     18 C18         2.9462  -11.4990   -6.7185 C.3       1 <1>        -0.0375 
     19 O19         3.3071  -13.5547   -5.4870 O.3       1 <1>        -0.3714 
     20 C20         2.8342  -14.8230   -4.9918 C.3       1 <1>         0.0689 
     21 C21         1.5886  -14.6085   -4.0971 C.3       1 <1>         0.0251 
     22 C22         2.5461  -15.8525   -6.1186 C.3       1 <1>        -0.0375 
     23 H1         -2.2091  -13.2601    3.6770 H         1 <1>         0.0126 
     24 H2         -3.7543  -13.6363    4.4885 H         1 <1>         0.0126 
     25 H3         -3.6775  -12.3382    3.2629 H         1 <1>         0.0126 
     26 H4         -3.2106  -16.4620    1.9678 H         1 <1>         0.0126 
     27 H5         -3.6954  -16.1889    3.6594 H         1 <1>         0.0126 
     28 H6         -2.0701  -15.7694    3.1569 H         1 <1>         0.0126 
     29 H7         -5.6743  -13.4863    2.2083 H         1 <1>         0.0126 
     30 H8         -5.6218  -14.9258    3.2111 H         1 <1>         0.0126 
     31 H9         -5.4657  -15.0988    1.4461 H         1 <1>         0.0126 
     32 H10        -0.9816  -14.5475    1.6099 H         1 <1>         0.0833 
     33 H11         0.0589  -13.9136   -0.4905 H         1 <1>         0.0652 
     34 H12        -3.6310  -12.1229   -1.7690 H         1 <1>         0.0652 
     35 H13        -4.7378  -12.9545    0.2172 H         1 <1>         0.0833 
     36 H14         0.0419  -12.6169   -2.5605 H         1 <1>         0.0502 
     37 H15        -1.1490  -11.3205   -2.4871 H         1 <1>         0.0502 
     38 H16        -2.6696  -13.3804   -3.6300 H         1 <1>         0.0341 
     39 H17        -1.1866  -11.0900   -4.9956 H         1 <1>         0.0235 
     40 H18        -2.8463  -11.1562   -4.3947 H         1 <1>         0.0235 
     41 H19        -2.3908  -12.1366   -5.8092 H         1 <1>         0.0235 
     42 H20        -1.3923  -14.3832   -5.4964 H         1 <1>         0.0431 
     43 H21        -0.9988  -14.9931   -3.8870 H         1 <1>         0.0431 
     44 H22         1.1178  -11.9008   -4.7908 H         1 <1>         0.0452 
     45 H23         0.2519  -12.3622   -6.3020 H         1 <1>         0.0452 
     46 H24         2.1712  -13.4330   -7.2372 H         1 <1>         0.0606 
     47 H25         3.1937  -10.9052   -5.8252 H         1 <1>         0.0255 
     48 H26         2.2356  -10.9301   -7.3393 H         1 <1>         0.0255 
     49 H27         3.8707  -11.6550   -7.2962 H         1 <1>         0.0255 
     50 H28         3.6555  -15.2226   -4.3734 H         1 <1>         0.0606 
     51 H29         1.8755  -13.9974   -3.2287 H         1 <1>         0.0452 
     52 H30         1.2523  -15.5911   -3.7305 H         1 <1>         0.0452 
     53 H31         2.4200  -16.8594   -5.6914 H         1 <1>         0.0255 
     54 H32         3.3928  -15.8717   -6.8220 H         1 <1>         0.0255 
     55 H33         1.6254  -15.6109   -6.6710 H         1 <1>         0.0255 
@<TRIPOS>BOND
     1    2    1 1    
     2    2    3 1    
     3    2    4 1    
     4    2    5 1    
     5    5    6 ar   
     6    6    7 ar   
     7    7    8 ar   
     8    8    9 ar   
     9    9   10 ar   
    10    5   10 ar   
    11    8   11 1    
    12   11   12 1    
    13   12   13 1    
    14   12   14 1    
    15   14   15 1    
    16   15   16 1    
    17   16   17 1    
    18   17   18 1    
    19   17   19 1    
    20   19   20 1    
    21   20   21 1    
    22   15   21 1    
    23   20   22 1    
    24    1   23 1    
    25    1   24 1    
    26    1   25 1    
    27    3   26 1    
    28    3   27 1    
    29    3   28 1    
    30    4   29 1    
    31    4   30 1    
    32    4   31 1    
    33    6   32 1    
    34    7   33 1    
    35    9   34 1    
    36   10   35 1    
    37   11   36 1    
    38   11   37 1    
    39   12   38 1    
    40   13   39 1    
    41   13   40 1    
    42   13   41 1    
    43   14   42 1    
    44   14   43 1    
    45   16   44 1    
    46   16   45 1    
    47   17   46 1    
    48   18   47 1    
    49   18   48 1    
    50   18   49 1    
    51   20   50 1    
    52   21   51 1    
    53   21   52 1    
    54   22   53 1    
    55   22   54 1    
    56   22   55 1    
@<TRIPOS>SUBSTRUCTURE
     1 ****        2 TEMP              0 ****  ****    0 ROOT 
@<TRIPOS>NORMAL
@<TRIPOS>FF_PBC
FORCE_FIELD_SETUP_FEATURE Force Field Setup information
v1.0  0 0.000000 0.000000 0.000000 0.000000 0.000000 0.000000 NONE 0 0 0 0 1 0 0 0 0 0 0 0 0
