#	Name:			PISM00462
#	Creating user name:	Administrator
#	Creation time:		Sat Feb 23 00:08:02 2019

#	Modifying user name:	Administrator
#	Modification time:	Sat Feb 23 00:21:16 2019

@<TRIPOS>MOLECULE
PISM00462
   42    43     1     2     0
SMALL
GAST_HUCK


@<TRIPOS>ATOM
      1 C1          6.0420    0.7476    3.5469 C.2       1 PHENYL     -0.0038 
      2 N2          5.2859    0.1252    2.7455 N.2       1 PHENYL     -0.2468 
      3 N3          4.2955    0.9340    2.3177 N.pl3     1 PHENYL     -0.2257 
      4 C4          4.4185    2.1134    2.8675 C.2       1 PHENYL      0.0587 
      5 C5          5.4915    2.1032    3.6720 C.2       1 PHENYL     -0.0133 
      6 C6          6.0690    3.1860    4.5489 C.3       1 PHENYL      0.0433 
      7 N7          6.2234    2.6763    5.9057 N.am      1 PHENYL     -0.2366 
      8 S8          7.8244    2.9576    6.8223 S.o2      1 PHENYL      0.0518 
      9 O9          8.8832    3.1269    5.8471 O.2       1 PHENYL     -0.1531 
     10 O10         7.9288    1.9508    7.8601 O.2       1 PHENYL     -0.1531 
     11 C11         7.4469    4.5511    7.5739 C.3       1 PHENYL      0.1188 
     12 C           8.3461    5.1328    8.6853 C.ar      1 PHENYL     -0.0059 
     13 C           9.6367    4.6920    9.0206 C.ar      1 PHENYL      0.0566 
     14 C          10.3196    5.2711   10.0968 C.ar      1 PHENYL      0.0477 
     15 C           9.7486    6.3166   10.8242 C.ar      1 PHENYL     -0.0543 
     16 C           8.4846    6.7913   10.4734 C.ar      1 PHENYL     -0.0678 
     17 C           7.7962    6.1992    9.4119 C.ar      1 PHENYL     -0.0580 
     18 C18         7.2530    0.1523    4.2068 C.3       1 PHENYL     -0.0319 
     19 C19         3.4550    3.2408    2.5833 C.3       1 PHENYL     -0.0085 
     20 C20         3.2582    0.5124    1.3888 C.3       1 PHENYL      0.0529 
     21 C21         5.1562    1.9585    6.5896 C.3       1 PHENYL      0.0190 
     22 H22        10.2873    6.7572   11.6571 H         1 PHENYL      0.0565 
     23 H1          5.4467    4.0884    4.5982 H         1 PHENYL      0.0535 
     24 H2          7.0453    3.4679    4.1290 H         1 PHENYL      0.0535 
     25 H3          6.4422    4.4169    8.0018 H         1 PHENYL      0.0684 
     26 H4          7.3783    5.2858    6.7579 H         1 PHENYL      0.0684 
     27 Cl27       10.4622    3.4268    8.1342 Cl        1 PHENYL     -0.0765 
     28 Cl28       11.9108    4.6918   10.5508 Cl        1 PHENYL     -0.0719 
     29 H7          8.0399    7.6158   11.0230 H         1 PHENYL      0.0601 
     30 H8          6.8134    6.5842    9.1549 H         1 PHENYL      0.0559 
     31 H9          7.8080    0.9049    4.7817 H         1 PHENYL      0.0367 
     32 H10         7.9178   -0.2647    3.4367 H         1 PHENYL      0.0367 
     33 H11         6.9366   -0.6546    4.8833 H         1 PHENYL      0.0367 
     34 H12         3.7414    4.1860    3.0602 H         1 PHENYL      0.0412 
     35 H13         2.4555    2.9605    2.9464 H         1 PHENYL      0.0412 
     36 H14         3.4056    3.4142    1.4986 H         1 PHENYL      0.0412 
     37 H15         2.2611    0.6614    1.8287 H         1 PHENYL      0.0585 
     38 H16         3.3886   -0.5578    1.1676 H         1 PHENYL      0.0585 
     39 H17         3.3380    1.0791    0.4491 H         1 PHENYL      0.0585 
     40 H18         5.2533    0.8806    6.3957 H         1 PHENYL      0.0443 
     41 H19         4.1702    2.2976    6.2382 H         1 PHENYL      0.0443 
     42 H20         5.2169    2.1282    7.6742 H         1 PHENYL      0.0443 
@<TRIPOS>BOND
     1    1    2 2    
     2    2    3 1    
     3    4    3 1    
     4    5    4 2    
     5    5    1 1    
     6    6    5 1    
     7    7    6 1    
     8    8    7 1    
     9    8    9 2    
    10    8   10 2    
    11   11    8 1    
    12   12   13 ar   
    13   12   17 ar   
    14   17   16 ar   
    15   16   15 ar   
    16   14   15 ar   
    17   13   14 ar   
    18   12   11 1    
    19    1   18 1    
    20    4   19 1    
    21    3   20 1    
    22    7   21 1    
    23   15   22 1    
    24    6   23 1    
    25    6   24 1    
    26   11   25 1    
    27   11   26 1    
    28   13   27 1    
    29   14   28 1    
    30   16   29 1    
    31   17   30 1    
    32   18   31 1    
    33   18   32 1    
    34   18   33 1    
    35   19   34 1    
    36   19   35 1    
    37   19   36 1    
    38   20   37 1    
    39   20   38 1    
    40   20   39 1    
    41   21   40 1    
    42   21   41 1    
    43   21   42 1    
@<TRIPOS>SUBSTRUCTURE
     1 PHENYL     12 PERM              0 ****  ****    0 ROOT 
@<TRIPOS>NORMAL
@<TRIPOS>FF_PBC
FORCE_FIELD_SETUP_FEATURE Force Field Setup information
v1.0  0 0.000000 0.000000 0.000000 0.000000 0.000000 0.000000 NONE 0 0 0 0 1 0 0 0 0 0 0 0 0
@<TRIPOS>RENDERING_ATTRS
ANTIALIASED_LINES 
*
