#	Name:			PISM01212
#	Creating user name:	14062
#	Creation time:		Sun Apr 07 00:58:05 2019

#	Modifying user name:	14062
#	Modification time:	Sun Apr 07 01:02:56 2019

@<TRIPOS>MOLECULE
PISM01212
   59    60     1     1     0
SMALL
GAST_HUCK


@<TRIPOS>ATOM
      1 C1         -8.4081   13.3914   10.3010 C.3       1 <1>         0.1119 
      2 O2         -7.4901   14.4172    9.8714 O.3       1 <1>        -0.3865 
      3 C3         -7.5585   12.1943   10.8072 C.3       1 <1>         0.1134 
      4 C4         -9.3309   12.9236    9.1408 C.3       1 <1>         0.1145 
      5 H4         -9.0350   13.7544   11.1338 H         1 <1>         0.0647 
      6 H2         -6.8532   11.8935   10.0135 H         1 <1>         0.0647 
      7 O7         -8.3803   11.0725   11.1894 O.3       1 <1>        -0.3365 
      8 C8         -6.7389   12.6012   12.0602 C.3       1 <1>         0.0730 
      9 H6         -8.7096   12.6108    8.2832 H         1 <1>         0.0648 
     10 O10       -10.2585   13.9459    8.7235 O.3       1 <1>        -0.3864 
     11 C11       -10.1737   11.7201    9.6350 C.3       1 <1>         0.1389 
     12 C12        -9.2215   10.5945   10.1243 C.3       1 <1>         0.2120 
     13 O13        -7.6084   12.9837   13.1412 O.3       1 <1>        -0.3924 
     14 O14       -11.0371   12.1638   10.7025 O.3       1 <1>        -0.3836 
     15 O15        -9.9363    9.4292   10.5684 O.3       1 <1>        -0.2771 
     16 C16       -10.8046    9.6439   11.6377 C.ar      1 <1>         0.1184 
     17 C17       -10.3022    9.8161   12.9309 C.ar      1 <1>        -0.0235 
     18 C18       -11.1685   10.1234   13.9840 C.ar      1 <1>        -0.0563 
     19 C19       -12.5418   10.2342   13.7488 C.ar      1 <1>         0.0073 
     20 C20       -13.0487   10.0162   12.4648 C.ar      1 <1>        -0.0416 
     21 C21       -12.1843    9.6866   11.4172 C.ar      1 <1>         0.0657 
     22 Br22      -13.6895   10.6657   15.1372 Br        1 <1>        -0.0585 
     23 C23       -12.7536    9.3761   10.0519 C.2       1 <1>         0.1436 
     24 C24       -12.9558    7.9468    9.6172 C.3       1 <1>         0.0964 
     25 C25       -11.6088    7.1904    9.4864 C.3       1 <1>        -0.0350 
     26 O26       -13.0684   10.2920    9.3091 O.2       1 <1>        -0.3837 
     27 S27       -14.0066    7.1937   10.9064 S.3       1 <1>        -0.0258 
     28 C28       -14.0432    5.5224   10.2671 C.2       1 <1>         0.1226 
     29 S29       -14.6521    5.2789    8.6821 S.2       1 <1>        -0.2715 
     30 N30       -13.5826    4.5217   11.0731 N.am      1 <1>        -0.2735 
     31 C31       -13.6258    3.1417   10.5781 C.3       1 <1>         0.0380 
     32 C32       -12.3636    2.8655    9.7245 C.3       1 <1>        -0.0423 
     33 C33       -13.0446    4.8209   12.4067 C.3       1 <1>         0.0380 
     34 C34       -14.2052    4.9221   13.4278 C.3       1 <1>        -0.0423 
     35 H1         -7.9145   15.2370    9.6407 H         1 <1>         0.2100 
     36 H3         -6.0820   13.4544   11.8282 H         1 <1>         0.0584 
     37 H5         -6.1045   11.7545   12.3738 H         1 <1>         0.0584 
     38 H7         -9.8424   14.7093    8.3371 H         1 <1>         0.2100 
     39 H8        -10.7789   11.3257    8.8002 H         1 <1>         0.0676 
     40 H9         -8.5964   10.2424    9.2870 H         1 <1>         0.0998 
     41 H10        -8.2160   12.2856   13.3703 H         1 <1>         0.2095 
     42 H11       -11.6405   12.8414   10.4096 H         1 <1>         0.2101 
     43 H12        -9.2392    9.7092   13.1176 H         1 <1>         0.0563 
     44 H13       -10.7747   10.2764   14.9837 H         1 <1>         0.0653 
     45 H14       -14.1146   10.1004   12.2800 H         1 <1>         0.0671 
     46 H15       -13.4936    7.9344    8.6553 H         1 <1>         0.0663 
     47 H16       -10.9420    7.7365    8.8014 H         1 <1>         0.0266 
     48 H17       -11.7612    6.1799    9.0796 H         1 <1>         0.0266 
     49 H18       -11.1187    7.0979   10.4669 H         1 <1>         0.0266 
     50 H19       -14.5376    2.9398    9.9931 H         1 <1>         0.0549 
     51 H20       -13.6427    2.4336   11.4229 H         1 <1>         0.0549 
     52 H21       -11.4586    3.0466   10.3247 H         1 <1>         0.0251 
     53 H22       -12.3388    3.5273    8.8461 H         1 <1>         0.0251 
     54 H23       -12.3563    1.8204    9.3773 H         1 <1>         0.0251 
     55 H24       -12.4276    5.7331   12.4204 H         1 <1>         0.0549 
     56 H25       -12.3748    4.0075   12.7314 H         1 <1>         0.0549 
     57 H26       -14.7722    3.9785   13.4414 H         1 <1>         0.0251 
     58 H27       -14.8941    5.7369   13.1613 H         1 <1>         0.0251 
     59 H28       -13.8106    5.1129   14.4383 H         1 <1>         0.0251 
@<TRIPOS>BOND
     1    1    2 1    
     2    1    3 1    
     3    1    4 1    
     4    1    5 1    
     5    3    6 1    
     6    3    7 1    
     7    3    8 1    
     8    4    9 1    
     9    4   10 1    
    10    4   11 1    
    11   11   12 1    
    12    7   12 1    
    13    8   13 1    
    14   11   14 1    
    15   12   15 1    
    16   15   16 1    
    17   16   17 ar   
    18   17   18 ar   
    19   18   19 ar   
    20   19   20 ar   
    21   20   21 ar   
    22   16   21 ar   
    23   19   22 1    
    24   21   23 1    
    25   23   24 1    
    26   24   25 1    
    27   23   26 2    
    28   24   27 1    
    29   27   28 1    
    30   28   29 2    
    31   28   30 am   
    32   30   31 1    
    33   31   32 1    
    34   30   33 1    
    35   33   34 1    
    36    2   35 1    
    37    8   36 1    
    38    8   37 1    
    39   10   38 1    
    40   11   39 1    
    41   12   40 1    
    42   13   41 1    
    43   14   42 1    
    44   17   43 1    
    45   18   44 1    
    46   20   45 1    
    47   24   46 1    
    48   25   47 1    
    49   25   48 1    
    50   25   49 1    
    51   31   50 1    
    52   31   51 1    
    53   32   52 1    
    54   32   53 1    
    55   32   54 1    
    56   33   55 1    
    57   33   56 1    
    58   34   57 1    
    59   34   58 1    
    60   34   59 1    
@<TRIPOS>SUBSTRUCTURE
     1 ****        1 TEMP              0 ****  ****    0 ROOT 
@<TRIPOS>NORMAL
@<TRIPOS>FF_PBC
FORCE_FIELD_SETUP_FEATURE Force Field Setup information
v1.0  0 0.000000 0.000000 0.000000 0.000000 0.000000 0.000000 NONE 0 0 0 0 1 0 0 0 0 0 0 0 0
