#	Name:			PISM00131
#	Creating user name:	baoopengkun
#	Creation time:		Mon Dec 17 15:27:10 2018

#	Modifying user name:	baoopengkun
#	Modification time:	Mon Dec 17 15:28:43 2018

@<TRIPOS>MOLECULE
PISM00131
   51    54     1     1     0
SMALL
GAST_HUCK


@<TRIPOS>ATOM
      1 C1         28.0940   -1.5708    4.4206 C.ar      1 <1>        -0.0575 
      2 C2         27.3405   -0.4584    4.0346 C.ar      1 <1>        -0.0567 
      3 C3         27.3519    0.6969    4.8211 C.ar      1 <1>        -0.0414 
      4 C4         28.0956    0.7233    6.0052 C.ar      1 <1>         0.0643 
      5 C5         28.7850   -0.4121    6.4329 C.ar      1 <1>         0.0171 
      6 C6         28.8372   -1.5392    5.6046 C.ar      1 <1>        -0.0479 
      7 C7         28.1983    1.9654    6.8591 C.2       1 <1>         0.2403 
      8 O8         27.6465    2.9879    6.4833 O.2       1 <1>        -0.3805 
      9 N9         28.8804    1.9127    7.9732 N.pl3     1 <1>        -0.1630 
     10 N10        29.4783    0.7777    8.4144 N.2       1 <1>        -0.1772 
     11 C11        29.4556   -0.3308    7.7870 C.2       1 <1>         0.0803 
     12 C12        28.9969    3.1102    8.7979 C.3       1 <1>         0.0567 
     13 C13        30.1067   -1.5294    8.4419 C.ar      1 <1>        -0.0109 
     14 C14        29.4669   -2.7721    8.4798 C.ar      1 <1>        -0.0605 
     15 C15        30.1113   -3.8725    9.0516 C.ar      1 <1>        -0.0310 
     16 C16        31.3773   -3.7418    9.6288 C.ar      1 <1>         0.0961 
     17 C17        32.0004   -2.4863    9.6252 C.ar      1 <1>        -0.0310 
     18 C18        31.3646   -1.3892    9.0355 C.ar      1 <1>        -0.0605 
     19 O19        31.9755   -4.8777   10.1930 O.3       1 <1>        -0.2964 
     20 C20        33.2475   -4.8307   10.8704 C.3       1 <1>         0.1596 
     21 C21        33.6543   -6.1836   11.4146 C.2       1 <1>         0.2095 
     22 O22        32.9588   -7.1321   11.0881 O.2       1 <1>        -0.3939 
     23 N23        34.7352   -6.3557   12.2324 N.am      1 <1>        -0.2710 
     24 C24        35.5424   -5.2116   12.6784 C.3       1 <1>         0.0339 
     25 C25        37.0440   -5.5775   12.8029 C.3       1 <1>        -0.0325 
     26 C26        37.2252   -6.8746   13.6264 C.3       1 <1>        -0.0494 
     27 C27        36.4743   -8.0240   12.9135 C.3       1 <1>        -0.0325 
     28 C28        34.9661   -7.6900   12.8010 C.3       1 <1>         0.0339 
     29 H1         28.1033   -2.4606    3.7980 H         1 <1>         0.0650 
     30 H2         26.7504   -0.4902    3.1235 H         1 <1>         0.0625 
     31 H3         26.7861    1.5700    4.5115 H         1 <1>         0.0667 
     32 H4         29.4562   -2.3909    5.8627 H         1 <1>         0.0631 
     33 H5         29.5862    2.8983    9.7032 H         1 <1>         0.0557 
     34 H6         27.9979    3.4576    9.1036 H         1 <1>         0.0557 
     35 H7         29.4999    3.9088    8.2310 H         1 <1>         0.0557 
     36 H8         28.4659   -2.8855    8.0756 H         1 <1>         0.0598 
     37 H9         29.6261   -4.8431    9.0536 H         1 <1>         0.0548 
     38 H10        32.9756   -2.3337   10.0708 H         1 <1>         0.0548 
     39 H11        31.8530   -0.4193    9.0358 H         1 <1>         0.0598 
     40 H12        33.1602   -4.1298   11.7136 H         1 <1>         0.0860 
     41 H13        34.0202   -4.5084   10.1571 H         1 <1>         0.0860 
     42 H14        35.1648   -4.8968   13.6647 H         1 <1>         0.0522 
     43 H15        35.5092   -4.3401   12.0080 H         1 <1>         0.0522 
     44 H16        37.5962   -4.7513   13.2827 H         1 <1>         0.0285 
     45 H17        37.4648   -5.7284   11.7945 H         1 <1>         0.0285 
     46 H18        36.8275   -6.7358   14.6453 H         1 <1>         0.0267 
     47 H19        38.2975   -7.1219   13.7040 H         1 <1>         0.0267 
     48 H20        36.6120   -8.9657   13.4717 H         1 <1>         0.0285 
     49 H21        36.8905   -8.1620   11.9015 H         1 <1>         0.0285 
     50 H22        34.5151   -7.7072   13.8062 H         1 <1>         0.0522 
     51 H23        34.5040   -8.5024   12.2150 H         1 <1>         0.0522 
@<TRIPOS>BOND
     1    2    1 ar   
     2    2    3 ar   
     3    3    4 ar   
     4    4    5 ar   
     5    5    6 ar   
     6    1    6 ar   
     7    4    7 1    
     8    7    8 2    
     9    7    9 1    
    10    9   10 1    
    11   10   11 2    
    12    5   11 1    
    13    9   12 1    
    14   11   13 1    
    15   13   14 ar   
    16   14   15 ar   
    17   15   16 ar   
    18   16   17 ar   
    19   17   18 ar   
    20   13   18 ar   
    21   16   19 1    
    22   19   20 1    
    23   20   21 1    
    24   21   22 2    
    25   21   23 am   
    26   23   24 1    
    27   24   25 1    
    28   25   26 1    
    29   26   27 1    
    30   27   28 1    
    31   23   28 1    
    32    1   29 1    
    33    2   30 1    
    34    3   31 1    
    35    6   32 1    
    36   12   33 1    
    37   12   34 1    
    38   12   35 1    
    39   14   36 1    
    40   15   37 1    
    41   17   38 1    
    42   18   39 1    
    43   20   40 1    
    44   20   41 1    
    45   24   42 1    
    46   24   43 1    
    47   25   44 1    
    48   25   45 1    
    49   26   46 1    
    50   26   47 1    
    51   27   48 1    
    52   27   49 1    
    53   28   50 1    
    54   28   51 1    
@<TRIPOS>SUBSTRUCTURE
     1 ****        2 TEMP              0 ****  ****    0 ROOT 
@<TRIPOS>NORMAL
@<TRIPOS>FF_PBC
FORCE_FIELD_SETUP_FEATURE Force Field Setup information
v1.0  0 0.000000 0.000000 0.000000 0.000000 0.000000 0.000000 NONE 0 0 0 0 1 0 0 0 0 0 0 0 0
