#	Name:			PISM00347
#	Creating user name:	baoopengkun
#	Creation time:		Sun Dec 16 03:29:03 2018

#	Modifying user name:	baoopengkun
#	Modification time:	Sun Dec 16 03:30:36 2018

@<TRIPOS>MOLECULE
PISM00347
   35    37     1     1     0
SMALL
GAST_HUCK


@<TRIPOS>ATOM
      1 C1        -20.3839    9.6551   45.4134 C.ar      1 <1>        -0.0538 
      2 C2        -21.2795    9.5556   44.3462 C.ar      1 <1>        -0.0607 
      3 C3        -21.3704   10.5953   43.4214 C.ar      1 <1>        -0.0605 
      4 C4        -20.5890   11.7395   43.5922 C.ar      1 <1>        -0.0511 
      5 C5        -19.7539   11.8853   44.7084 C.ar      1 <1>         0.0112 
      6 C6        -19.5948   10.8017   45.5890 C.ar      1 <1>        -0.0084 
      7 C7        -18.6511   10.8859   46.6252 C.ar      1 <1>         0.0197 
      8 C8        -17.8981   12.0503   46.7916 C.ar      1 <1>        -0.0494 
      9 C9        -18.1133   13.1502   45.9610 C.ar      1 <1>        -0.0306 
     10 C10       -19.0808   13.0925   44.9548 C.ar      1 <1>         0.1195 
     11 Br11      -18.3474    9.4873   47.8091 Br        1 <1>        -0.0495 
     12 S12       -19.4039   14.5895   44.0309 S.o2      1 <1>         0.0724 
     13 O13       -19.0819   14.3668   42.6350 O.2       1 <1>        -0.1496 
     14 O14       -18.8079   15.7158   44.7212 O.2       1 <1>        -0.1496 
     15 N15       -21.0251   14.7025   44.2287 N.am      1 <1>        -0.2334 
     16 C16       -21.9686   14.9743   43.1513 C.3       1 <1>         0.0756 
     17 C17       -22.9969   13.8408   43.1283 C.ar      1 <1>         0.0465 
     18 C18       -23.6854   13.5040   41.9583 C.ar      1 <1>        -0.0308 
     19 C19       -24.5673   12.4201   41.9711 C.ar      1 <1>        -0.0488 
     20 C20       -24.7447   11.6960   43.1528 C.ar      1 <1>        -0.0410 
     21 C21       -24.0485   12.0848   44.3003 C.ar      1 <1>         0.0028 
     22 N22       -23.2246   13.1521   44.2667 N.ar      1 <1>        -0.2964 
     23 H1        -20.3243    8.8162   46.0969 H         1 <1>         0.0620 
     24 H2        -21.9009    8.6722   44.2329 H         1 <1>         0.0624 
     25 H3        -22.0446   10.5150   42.5738 H         1 <1>         0.0618 
     26 H4        -20.6486   12.5041   42.8303 H         1 <1>         0.0630 
     27 H5        -17.1444   12.1031   47.5712 H         1 <1>         0.0655 
     28 H6        -17.5268   14.0514   46.1047 H         1 <1>         0.0646 
     29 H7        -21.4123   14.5868   45.1464 H         1 <1>         0.1703 
     30 H8        -21.4556   15.0425   42.1803 H         1 <1>         0.0668 
     31 H9        -22.4943   15.9232   43.3378 H         1 <1>         0.0668 
     32 H10       -23.5369   14.0752   41.0479 H         1 <1>         0.0652 
     33 H11       -25.1083   12.1425   41.0717 H         1 <1>         0.0719 
     34 H12       -25.4143   10.8422   43.1799 H         1 <1>         0.0652 
     35 H13       -24.1641   11.5313   45.2260 H         1 <1>         0.0803 
@<TRIPOS>BOND
     1    2    1 ar   
     2    2    3 ar   
     3    3    4 ar   
     4    4    5 ar   
     5    5    6 ar   
     6    1    6 ar   
     7    6    7 ar   
     8    7    8 ar   
     9    8    9 ar   
    10    9   10 ar   
    11    5   10 ar   
    12    7   11 1    
    13   10   12 1    
    14   12   13 2    
    15   12   14 2    
    16   12   15 1    
    17   15   16 1    
    18   16   17 1    
    19   17   18 ar   
    20   18   19 ar   
    21   19   20 ar   
    22   20   21 ar   
    23   21   22 ar   
    24   17   22 ar   
    25    1   23 1    
    26    2   24 1    
    27    3   25 1    
    28    4   26 1    
    29    8   27 1    
    30    9   28 1    
    31   15   29 1    
    32   16   30 1    
    33   16   31 1    
    34   18   32 1    
    35   19   33 1    
    36   20   34 1    
    37   21   35 1    
@<TRIPOS>SUBSTRUCTURE
     1 ****        2 TEMP              0 ****  ****    0 ROOT 
@<TRIPOS>NORMAL
@<TRIPOS>FF_PBC
FORCE_FIELD_SETUP_FEATURE Force Field Setup information
v1.0  0 0.000000 0.000000 0.000000 0.000000 0.000000 0.000000 NONE 0 0 0 0 1 0 0 0 0 0 0 0 0
