#	Name:			PISM00496
#	Creating user name:	malab
#	Creation time:		Thu Apr 04 12:21:53 2019

#	Modifying user name:	malab
#	Modification time:	Thu Apr 04 12:23:21 2019

@<TRIPOS>MOLECULE
PISM00496
   37    39     1     1     0
SMALL
GAST_HUCK


@<TRIPOS>ATOM
      1 Cl1        23.5833    2.9125    3.0609 Cl        1 <1>        -0.0805 
      2 C2         23.3193    4.3562    2.1056 C.ar      1 <1>         0.0333 
      3 C3         23.9049    5.5668    2.4839 C.ar      1 <1>        -0.0392 
      4 C4         23.6957    6.7137    1.7122 C.ar      1 <1>         0.0566 
      5 C5         22.8825    6.6682    0.5753 C.ar      1 <1>         0.0815 
      6 C6         22.3025    5.4518    0.1976 C.ar      1 <1>        -0.0327 
      7 C7         22.5210    4.2999    0.9601 C.ar      1 <1>        -0.0534 
      8 C8         24.3549    8.0168    2.0964 C.2       1 <1>         0.1535 
      9 O9         23.8442    8.6859    2.9800 O.2       1 <1>        -0.3747 
     10 C10        25.6125    8.4908    1.4003 C.ar      1 <1>         0.0316 
     11 C11        26.2242    9.6772    1.8200 C.ar      1 <1>        -0.0437 
     12 C12        27.4028   10.1212    1.2152 C.ar      1 <1>        -0.0561 
     13 C13        27.9784    9.3809    0.1794 C.ar      1 <1>        -0.0574 
     14 C14        27.3630    8.2032   -0.2561 C.ar      1 <1>        -0.0561 
     15 C15        26.1801    7.7639    0.3468 C.ar      1 <1>        -0.0437 
     16 N16        22.6553    7.7985   -0.1381 N.pl3     1 <1>        -0.2328 
     17 C17        22.8439    7.8365   -1.4312 C.2       1 <1>         0.2397 
     18 O18        23.2713    6.8728   -2.0437 O.2       1 <1>        -0.3625 
     19 C19        22.5596    9.0871   -2.2391 C.ar      1 <1>         0.0840 
     20 C20        21.5074    9.9503   -1.9151 C.ar      1 <1>        -0.0217 
     21 C21        21.3279   11.1238   -2.6516 C.ar      1 <1>        -0.0282 
     22 C22        22.1829   11.3974   -3.7220 C.ar      1 <1>         0.0156 
     23 N23        23.1579   10.5255   -4.0502 N.ar      1 <1>        -0.2901 
     24 C24        23.3584    9.3918   -3.3461 C.ar      1 <1>         0.0320 
     25 H1         24.5243    5.6122    3.3732 H         1 <1>         0.0645 
     26 H2         21.6728    5.3994   -0.6840 H         1 <1>         0.0544 
     27 H3         22.0691    3.3585    0.6636 H         1 <1>         0.0630 
     28 H4         25.7857   10.2614    2.6227 H         1 <1>         0.0669 
     29 H5         27.8726   11.0407    1.5512 H         1 <1>         0.0630 
     30 H6         28.8998    9.7184   -0.2845 H         1 <1>         0.0654 
     31 H7         27.8078    7.6295   -1.0634 H         1 <1>         0.0630 
     32 H8         25.7116    6.8537   -0.0129 H         1 <1>         0.0669 
     33 H9         22.3607    8.6477    0.3669 H         1 <1>         0.2129 
     34 H10        20.8233    9.7145   -1.1072 H         1 <1>         0.0790 
     35 H11        20.5303   11.8145   -2.3948 H         1 <1>         0.0723 
     36 H12        22.0683   12.3112   -4.2963 H         1 <1>         0.0859 
     37 H13        24.1532    8.7188   -3.6520 H         1 <1>         0.0880 
@<TRIPOS>BOND
     1    2    1 1    
     2    2    3 ar   
     3    3    4 ar   
     4    4    5 ar   
     5    5    6 ar   
     6    6    7 ar   
     7    2    7 ar   
     8    4    8 1    
     9    8    9 2    
    10    8   10 1    
    11   10   11 ar   
    12   11   12 ar   
    13   12   13 ar   
    14   13   14 ar   
    15   14   15 ar   
    16   10   15 ar   
    17    5   16 1    
    18   16   17 1    
    19   17   18 2    
    20   17   19 1    
    21   19   20 ar   
    22   20   21 ar   
    23   21   22 ar   
    24   22   23 ar   
    25   23   24 ar   
    26   19   24 ar   
    27    3   25 1    
    28    6   26 1    
    29    7   27 1    
    30   11   28 1    
    31   12   29 1    
    32   13   30 1    
    33   14   31 1    
    34   15   32 1    
    35   16   33 1    
    36   20   34 1    
    37   21   35 1    
    38   22   36 1    
    39   24   37 1    
@<TRIPOS>SUBSTRUCTURE
     1 ****        2 TEMP              0 ****  ****    0 ROOT 
@<TRIPOS>NORMAL
@<TRIPOS>FF_PBC
FORCE_FIELD_SETUP_FEATURE Force Field Setup information
v1.0  0 0.000000 0.000000 0.000000 0.000000 0.000000 0.000000 NONE 0 0 0 0 1 0 0 0 0 0 0 0 0
