#	Name:			PISM00139
#	Creating user name:	baoopengkun
#	Creation time:		Fri Jan 04 09:43:25 2019

#	Modifying user name:	baoopengkun
#	Modification time:	Fri Jan 04 09:45:35 2019

@<TRIPOS>MOLECULE
PISM00139
   35    37     1     1     0
SMALL
GAST_HUCK


@<TRIPOS>ATOM
      1 C1         -0.0881  -11.7387   11.2692 C.ar      1 <1>        -0.0592 
      2 C2         -0.6398  -12.8105   10.5632 C.ar      1 <1>        -0.0644 
      3 C3         -1.8028  -12.6210    9.8141 C.ar      1 <1>        -0.0637 
      4 C4         -2.4007  -11.3590    9.7606 C.ar      1 <1>        -0.0540 
      5 C5         -1.8283  -10.2682   10.4294 C.ar      1 <1>         0.0113 
      6 C6         -0.6860  -10.4735   11.2171 C.ar      1 <1>        -0.0278 
      7 C7         -0.1452   -9.4133   11.9543 C.ar      1 <1>        -0.0700 
      8 C8         -0.7342   -8.1482   11.9032 C.ar      1 <1>        -0.0765 
      9 C9         -1.8459   -7.9337   11.0860 C.ar      1 <1>        -0.0412 
     10 C10        -2.3808   -8.9824   10.3301 C.ar      1 <1>         0.0742 
     11 N11        -3.4223   -8.7356    9.4989 N.pl3     1 <1>        -0.2341 
     12 C12        -4.5371   -8.2229    9.9452 C.2       1 <1>         0.2360 
     13 O13        -4.7000   -7.9578   11.1245 O.2       1 <1>        -0.3635 
     14 C14        -5.6986   -7.9363    9.0175 C.ar      1 <1>         0.0766 
     15 C15        -6.3993   -6.7191    9.0413 C.ar      1 <1>         0.0817 
     16 C16        -6.1027   -5.5629    9.9821 C.2       1 <1>         0.2647 
     17 O17        -6.3348   -4.4331    9.5867 O.2       1 <1>        -0.3550 
     18 O18        -5.6205   -5.6595   11.2221 O.3       1 <1>        -0.2929 
     19 C19        -7.4409   -6.5253    8.1237 C.ar      1 <1>        -0.0352 
     20 C20        -7.7835   -7.5110    7.1949 C.ar      1 <1>        -0.0517 
     21 C21        -7.0933   -8.7238    7.1869 C.ar      1 <1>        -0.0517 
     22 C22        -6.0652   -8.9362    8.1079 C.ar      1 <1>        -0.0357 
     23 H1          0.8092  -11.9011   11.8586 H         1 <1>         0.0596 
     24 H2         -0.1676  -13.7877   10.5983 H         1 <1>         0.0613 
     25 H3         -2.2418  -13.4552    9.2750 H         1 <1>         0.0588 
     26 H4         -3.3189  -11.2484    9.1945 H         1 <1>         0.0630 
     27 H5          0.7342   -9.5621   12.5737 H         1 <1>         0.0480 
     28 H6         -0.3278   -7.3331   12.4945 H         1 <1>         0.0577 
     29 H7         -2.2893   -6.9443   11.0349 H         1 <1>         0.0482 
     30 H8         -3.3139   -8.9379    8.4950 H         1 <1>         0.2134 
     31 H9         -5.4934   -6.5528   11.5196 H         1 <1>         0.2524 
     32 H10        -8.0010   -5.5946    8.1249 H         1 <1>         0.0684 
     33 H11        -8.5846   -7.3356    6.4824 H         1 <1>         0.0665 
     34 H12        -7.3562   -9.4969    6.4705 H         1 <1>         0.0665 
     35 H13        -5.5559   -9.8950    8.1133 H         1 <1>         0.0683 
@<TRIPOS>BOND
     1    2    1 ar   
     2    2    3 ar   
     3    3    4 ar   
     4    4    5 ar   
     5    5    6 ar   
     6    1    6 ar   
     7    6    7 ar   
     8    7    8 ar   
     9    8    9 ar   
    10    9   10 ar   
    11    5   10 ar   
    12   10   11 1    
    13   11   12 1    
    14   12   13 2    
    15   12   14 1    
    16   14   15 ar   
    17   15   16 1    
    18   16   17 2    
    19   16   18 1    
    20   15   19 ar   
    21   19   20 ar   
    22   20   21 ar   
    23   21   22 ar   
    24   14   22 ar   
    25    1   23 1    
    26    2   24 1    
    27    3   25 1    
    28    4   26 1    
    29    7   27 1    
    30    8   28 1    
    31    9   29 1    
    32   11   30 1    
    33   18   31 1    
    34   19   32 1    
    35   20   33 1    
    36   21   34 1    
    37   22   35 1    
@<TRIPOS>SUBSTRUCTURE
     1 ****        2 TEMP              0 ****  ****    0 ROOT 
@<TRIPOS>NORMAL
@<TRIPOS>FF_PBC
FORCE_FIELD_SETUP_FEATURE Force Field Setup information
v1.0  0 0.000000 0.000000 0.000000 0.000000 0.000000 0.000000 NONE 0 0 0 0 1 0 0 0 0 0 0 0 0
