#	Name:			PISM00148
#	Creating user name:	14062
#	Creation time:		Sat Oct 19 22:36:22 2019

#	Modifying user name:	14062
#	Modification time:	Sat Oct 19 22:41:35 2019

@<TRIPOS>MOLECULE
PISM00148
   31    33     2     1     0
SMALL
GAST_HUCK


@<TRIPOS>ATOM
      1 C1          4.9026    3.8384   -4.7852 C.2       1 BENZYL      0.1271 
      2 C1          6.1745    4.2690   -4.8014 C.2       1 BENZYL      0.0664 
      3 C2          6.9405    3.8131   -6.0165 C.ar      1 BENZYL     -0.0006 
      4 C3          6.1062    3.0492   -6.8176 C.ar      1 BENZYL      0.0424 
      5 C4          6.5676    2.4990   -8.0144 C.ar      1 BENZYL     -0.0467 
      6 C5          7.8963    2.7393   -8.3847 C.ar      1 BENZYL     -0.0678 
      7 C6          8.7377    3.5121   -7.5724 C.ar      1 BENZYL     -0.0688 
      8 C7          8.2667    4.0602   -6.3735 C.ar      1 BENZYL     -0.0619 
      9 S9          4.4639    2.8323   -6.2249 S.3       1 BENZYL     -0.0214 
     10 Cl10        6.9151    5.2609   -3.5612 Cl        1 BENZYL     -0.0769 
     11 C11         3.9134    4.1290   -3.7186 C.2       1 BENZYL      0.2566 
     12 O12         4.2726    4.8178   -2.7779 O.2       1 BENZYL     -0.3648 
     13 N13         2.6915    3.6700   -3.7688 N.pl3     1 BENZYL     -0.1707 
     14 N14         1.8149    3.9567   -2.7746 N.2       1 BENZYL     -0.1796 
     15 C1          0.6100    3.5394   -2.7568 C.2       2 BENZYL      0.0575 
     16 H16        -0.0102    3.8285   -1.9099 H         2 BENZYL      0.0825 
     17 C17         0.0384    2.6731   -3.8594 C.ar      2 BENZYL      0.0584 
     18 N18         0.8259    2.3283   -4.9026 N.ar      2 BENZYL     -0.2944 
     19 C19         0.3705    1.5593   -5.9137 C.ar      2 BENZYL      0.0078 
     20 C20        -0.9466    1.0923   -5.9075 C.ar      2 BENZYL     -0.0359 
     21 C21        -1.7842    1.4317   -4.8421 C.ar      2 BENZYL     -0.0436 
     22 C22        -1.2871    2.2298   -3.8083 C.ar      2 BENZYL     -0.0282 
     23 H1          5.9117    1.9015   -8.6391 H         1 BENZYL      0.0576 
     24 H2          8.2785    2.3220   -9.3114 H         1 BENZYL      0.0589 
     25 H3          9.7655    3.6881   -7.8753 H         1 BENZYL      0.0564 
     26 H4          8.9108    4.6596   -5.7386 H         1 BENZYL      0.0594 
     27 H5          2.3872    3.0869   -4.5645 H         1 BENZYL      0.2353 
     28 H6          1.0366    1.3066   -6.7321 H         2 BENZYL      0.0822 
     29 H7         -1.3138    0.4737   -6.7205 H         2 BENZYL      0.0694 
     30 H8         -2.8108    1.0789   -4.8179 H         2 BENZYL      0.0729 
     31 H9         -1.9270    2.5010   -2.9750 H         2 BENZYL      0.0706 
@<TRIPOS>BOND
     1    2    3 1    
     2    3    4 ar   
     3    3    8 ar   
     4    8    7 ar   
     5    7    6 ar   
     6    6    5 ar   
     7    5    4 ar   
     8    2    1 2    
     9    1    9 1    
    10    4    9 1    
    11    2   10 1    
    12    1   11 1    
    13   11   12 2    
    14   11   13 1    
    15   13   14 1    
    16   15   16 1    
    17   15   17 1    
    18   17   18 ar   
    19   18   19 ar   
    20   19   20 ar   
    21   20   21 ar   
    22   21   22 ar   
    23   14   15 2    
    24   17   22 ar   
    25    5   23 1    
    26    6   24 1    
    27    7   25 1    
    28    8   26 1    
    29   13   27 1    
    30   19   28 1    
    31   20   29 1    
    32   21   30 1    
    33   22   31 1    
@<TRIPOS>SUBSTRUCTURE
     1 BENZYL      2 PERM              0 ****  ****    1 ROOT 
     2 BENZYL     15 PERM              0 ****  ****    1  
@<TRIPOS>NORMAL
@<TRIPOS>FF_PBC
FORCE_FIELD_SETUP_FEATURE Force Field Setup information
v1.0  0 0.000000 0.000000 0.000000 0.000000 0.000000 0.000000 NONE 0 0 0 0 1 0 0 0 0 0 0 0 0
