#	Name:			PISM01108
#	Creating user name:	Qinrunwen
#	Creation time:		Tue Apr 02 20:02:43 2019

#	Modifying user name:	Qinrunwen
#	Modification time:	Tue Apr 02 20:05:49 2019

@<TRIPOS>MOLECULE
PISM01108
   41    43     1     1     0
SMALL
GAST_HUCK


@<TRIPOS>ATOM
      1 C1         -0.3737    5.3173   -0.0588 C.ar      1 <1>         0.0547 
      2 C2          0.5323    4.5649   -0.8188 C.ar      1 <1>        -0.0471 
      3 C3          0.3074    3.2065   -1.0625 C.ar      1 <1>        -0.0515 
      4 C4         -0.8517    2.5802   -0.5927 C.ar      1 <1>        -0.0073 
      5 C5         -1.7673    3.3269    0.1537 C.ar      1 <1>        -0.0515 
      6 C6         -1.5257    4.6784    0.4184 C.ar      1 <1>        -0.0471 
      7 C7         -0.1769    6.7892    0.2676 C.2       1 <1>         0.2555 
      8 O8          0.9562    7.4793    0.1089 O.3       1 <1>        -0.2944 
      9 O9         -1.1184    7.4186    0.7185 O.2       1 <1>        -0.3604 
     10 C10        -1.1229    1.0991   -0.8848 C.3       1 <1>         0.1097 
     11 O11        -0.8709    0.3610    0.3220 O.3       1 <1>        -0.2965 
     12 C12        -0.9247   -1.0219    0.1521 C.ar      1 <1>         0.1136 
     13 C13        -2.1541   -1.6634   -0.0236 C.ar      1 <1>        -0.0208 
     14 C14        -2.1928   -3.0363   -0.2825 C.ar      1 <1>        -0.0497 
     15 C15        -1.0020   -3.7659   -0.3524 C.ar      1 <1>        -0.0107 
     16 C16         0.2203   -3.1401   -0.0900 C.ar      1 <1>        -0.0424 
     17 C17         0.2600   -1.7647    0.1502 C.ar      1 <1>         0.0503 
     18 C18        -1.0249   -5.2319   -0.7187 C.2       1 <1>        -0.0201 
     19 C19        -1.3503   -5.6579   -1.9485 C.2       1 <1>         0.1241 
     20 C20        -1.6928   -4.7701   -3.0782 C.2       1 <1>         0.2310 
     21 N21        -1.9931   -5.3081   -4.2736 N.am      1 <1>        -0.1826 
     22 C22        -1.9982   -6.6313   -4.5119 C.2       1 <1>         0.3158 
     23 N23        -1.6949   -7.4888   -3.5221 N.am      1 <1>        -0.1826 
     24 C24        -1.3772   -7.0955   -2.2762 C.2       1 <1>         0.2310 
     25 O25        -1.1114   -7.9183   -1.4158 O.2       1 <1>        -0.3842 
     26 O26        -2.2760   -7.0508   -5.6215 O.2       1 <1>        -0.3834 
     27 O27        -1.6990   -3.5588   -2.9409 O.2       1 <1>        -0.3842 
     28 Br28        1.8804   -0.9215    0.4567 Br        1 <1>        -0.0551 
     29 H1          1.4241    5.0102   -1.2435 H         1 <1>         0.0655 
     30 H2          1.0441    2.6399   -1.6238 H         1 <1>         0.0571 
     31 H3         -2.6697    2.8547    0.5316 H         1 <1>         0.0571 
     32 H4         -2.2500    5.2338    1.0071 H         1 <1>         0.0655 
     33 H5          1.7004    6.9747   -0.1820 H         1 <1>         0.2522 
     34 H6         -0.4687    0.7461   -1.6985 H         1 <1>         0.0797 
     35 H7         -2.1700    0.9718   -1.2032 H         1 <1>         0.0797 
     36 H8         -3.0758   -1.0947    0.0379 H         1 <1>         0.0576 
     37 H9         -3.1454   -3.5344   -0.4336 H         1 <1>         0.0679 
     38 H10         1.1363   -3.7216   -0.0822 H         1 <1>         0.0688 
     39 H11        -0.7525   -5.9392    0.0656 H         1 <1>         0.0849 
     40 H12        -2.2201   -4.6929   -5.0281 H         1 <1>         0.2249 
     41 H13        -1.7058   -8.4674   -3.7249 H         1 <1>         0.2249 
@<TRIPOS>BOND
     1    2    1 ar   
     2    2    3 ar   
     3    3    4 ar   
     4    4    5 ar   
     5    5    6 ar   
     6    1    6 ar   
     7    1    7 1    
     8    7    8 1    
     9    7    9 2    
    10    4   10 1    
    11   10   11 1    
    12   11   12 1    
    13   12   13 ar   
    14   13   14 ar   
    15   14   15 ar   
    16   15   16 ar   
    17   16   17 ar   
    18   12   17 ar   
    19   15   18 1    
    20   18   19 2    
    21   19   20 1    
    22   20   21 am   
    23   21   22 am   
    24   22   23 am   
    25   23   24 am   
    26   19   24 1    
    27   24   25 2    
    28   22   26 2    
    29   20   27 2    
    30   17   28 1    
    31    2   29 1    
    32    3   30 1    
    33    5   31 1    
    34    6   32 1    
    35    8   33 1    
    36   10   34 1    
    37   10   35 1    
    38   13   36 1    
    39   14   37 1    
    40   16   38 1    
    41   18   39 1    
    42   21   40 1    
    43   23   41 1    
@<TRIPOS>SUBSTRUCTURE
     1 ****        2 TEMP              0 ****  ****    0 ROOT 
@<TRIPOS>NORMAL
@<TRIPOS>FF_PBC
FORCE_FIELD_SETUP_FEATURE Force Field Setup information
v1.0  0 0.000000 0.000000 0.000000 0.000000 0.000000 0.000000 NONE 0 0 0 0 1 0 0 0 0 0 0 0 0
