#	Name:			PISM00774
#	Creating user name:	baoopengkun
#	Creation time:		Tue Nov 20 09:58:54 2018

#	Modifying user name:	baoopengkun
#	Modification time:	Tue Nov 20 10:35:13 2018

@<TRIPOS>MOLECULE
PISM00774
   49    52     1     2     0
SMALL
GAST_HUCK


@<TRIPOS>ATOM
      1 C1          2.7972   14.8430   -8.0083 C.3       1 <1>        -0.0240 
      2 C2          1.3236   14.7573   -7.5554 C.3       1 <1>        -0.0149 
      3 C3          1.2520   13.3477   -7.0436 C.2       1 <1>        -0.0648 
      4 C4          2.4307   12.4974   -7.4484 C.3       1 <1>         0.0394 
      5 C5          3.1382   13.4081   -8.4935 C.3       1 <1>         0.0130 
      6 C6          0.2235   12.8997   -6.3142 C.2       1 <1>        -0.1285 
      7 C7          3.3414   12.1548   -6.2347 C.3       1 <1>         0.1096 
      8 C8          4.6167   13.1276   -8.6898 C.2       1 <1>        -0.0675 
      9 C9          5.0319   11.6760   -8.7896 C.3       1 <1>        -0.0171 
     10 C10         5.4701   11.1605   -7.3943 C.3       1 <1>        -0.0329 
     11 C11         4.2539   10.9248   -6.4621 C.3       1 <1>         0.0177 
     12 C12         5.5441   14.0924   -8.7807 C.2       1 <1>        -0.1286 
     13 O13         2.5898   11.7568   -5.0758 O.3       1 <1>        -0.2697 
     14 C14         3.3451   10.9362   -4.3406 C.2       1 <1>         0.2399 
     15 C15         4.6455   10.5879   -5.0036 C.3       1 <1>         0.0895 
     16 O16         2.9979   10.4996   -3.2565 O.2       1 <1>        -0.3700 
     17 C17         5.0777    9.1185   -4.7775 C.3       1 <1>         0.0751 
     18 O18         4.0613    8.2448   -5.3050 O.3       1 <1>        -0.3320 
     19 C19         4.3716    6.8524   -5.1392 C.3       1 <1>         0.2149 
     20 O20         5.5913    6.5339   -5.8397 O.3       1 <1>        -0.2355 
     21 C21         5.2259    5.7331   -6.8326 C.2       1 <1>         0.2491 
     22 O22         6.0294    5.3070   -7.6443 O.2       1 <1>        -0.3691 
     23 C23         3.8074    5.3957   -6.8769 C.2       1 <1>         0.0288 
     24 C24         3.2960    6.0671   -5.8471 C.2       1 <1>        -0.0067 
     25 C25         3.0902    4.5068   -7.8558 C.3       1 <1>        -0.0323 
     26 H1          3.4198   15.1047   -7.1370 H         1 <1>         0.0323 
     27 H2          2.9332   15.6108   -8.7878 H         1 <1>         0.0323 
     28 H3          0.6461   14.8477   -8.4197 H         1 <1>         0.0462 
     29 H4          1.0596   15.5134   -6.7984 H         1 <1>         0.0462 
     30 H5          2.0460   11.5704   -7.9037 H         1 <1>         0.0554 
     31 H6          2.6437   13.2638   -9.4698 H         1 <1>         0.0527 
     32 H7          0.1840   11.8680   -5.9669 H         1 <1>         0.0075 
     33 H8         -0.6023   13.5617   -6.0555 H         1 <1>         0.0075 
     34 H9          3.9472   13.0288   -5.9424 H         1 <1>         0.0686 
     35 H35         5.4111   11.2800   -4.6165 H         1 <1>         0.0581 
     36 H10         5.8902   11.5936   -9.4774 H         1 <1>         0.0460 
     37 H11         4.2272   11.0533   -9.2110 H         1 <1>         0.0460 
     38 H12         5.9998   10.2006   -7.5146 H         1 <1>         0.0297 
     39 H13         6.1711   11.8799   -6.9410 H         1 <1>         0.0297 
     40 H14         3.6373   10.1064   -6.8717 H         1 <1>         0.0362 
     41 H15         5.3194   15.1552   -8.7307 H         1 <1>         0.0075 
     42 H16         6.5966   13.8435   -8.9142 H         1 <1>         0.0075 
     43 H17         5.2121    8.9501   -3.6961 H         1 <1>         0.0593 
     44 H18         6.0410    8.9503   -5.2855 H         1 <1>         0.0593 
     45 H19         4.4372    6.5586   -4.0783 H         1 <1>         0.1143 
     46 H20         2.2464    6.0621   -5.5563 H         1 <1>         0.0701 
     47 H21         2.1891    5.0132   -8.2329 H         1 <1>         0.0347 
     48 H22         2.7969    3.5715   -7.3563 H         1 <1>         0.0347 
     49 H23         3.7466    4.2681   -8.7060 H         1 <1>         0.0347 
@<TRIPOS>BOND
     1    2    1 1    
     2    2    3 1    
     3    3    4 1    
     4    4    5 1    
     5    1    5 1    
     6    3    6 2    
     7    4    7 1    
     8    5    8 1    
     9    8    9 1    
    10   11   10 1    
    11    9   10 1    
    12    7   11 1    
    13    8   12 2    
    14    7   13 1    
    15   13   14 1    
    16   14   15 1    
    17   11   15 1    
    18   14   16 2    
    19   15   17 1    
    20   17   18 1    
    21   18   19 1    
    22   19   20 1    
    23   20   21 1    
    24   21   22 2    
    25   21   23 1    
    26   23   24 2    
    27   19   24 1    
    28   23   25 1    
    29    1   26 1    
    30    1   27 1    
    31    2   28 1    
    32    2   29 1    
    33    4   30 1    
    34    5   31 1    
    35    6   32 1    
    36    6   33 1    
    37   15   35 1    
    38    7   34 1    
    39    9   36 1    
    40    9   37 1    
    41   10   38 1    
    42   10   39 1    
    43   11   40 1    
    44   12   41 1    
    45   12   42 1    
    46   17   43 1    
    47   17   44 1    
    48   19   45 1    
    49   24   46 1    
    50   25   47 1    
    51   25   48 1    
    52   25   49 1    
@<TRIPOS>SUBSTRUCTURE
     1 ****        2 TEMP              0 ****  ****    0 ROOT 
@<TRIPOS>NORMAL
@<TRIPOS>FF_PBC
FORCE_FIELD_SETUP_FEATURE Force Field Setup information
v1.0  0 0.000000 0.000000 0.000000 0.000000 0.000000 0.000000 NONE 0 0 0 0 1 0 0 0 0 0 0 0 0
@<TRIPOS>RENDERING_ATTRS
LINES           
1,2,3,4,5,6,7,8,9,10,11,12,13,14,15,16,17,18,35
