#	Name:			PISM00238
#	Creating user name:	14062
#	Creation time:		Tue Jun 18 21:26:04 2019

#	Modifying user name:	14062
#	Modification time:	Tue Jun 18 21:33:38 2019

@<TRIPOS>MOLECULE
PISM00238
   25    26     1     2     0
SMALL
NO_CHARGES


@<TRIPOS>ATOM
      1 C1         -1.2242    5.0699   -0.0373 C.ar      1 <1>         0.0000 
      2 C2          0.1463    4.8051    0.0276 C.ar      1 <1>         0.0000 
      3 C3          0.6031    3.4848    0.0292 C.ar      1 <1>         0.0000 
      4 C4         -0.3106    2.4291   -0.0216 C.ar      1 <1>         0.0000 
      5 C5         -1.6845    2.6886   -0.0861 C.ar      1 <1>         0.0000 
      6 C6         -2.1356    4.0113   -0.0848 C.ar      1 <1>         0.0000 
      7 C7         -2.5951    1.6292   -0.1527 C.ar      1 <1>         0.0000 
      8 C8         -2.1264    0.3107   -0.1299 C.ar      1 <1>         0.0000 
      9 C9         -0.7564    0.0512   -0.0515 C.ar      1 <1>         0.0000 
     10 C10         0.1530    1.1115   -0.0101 C.ar      1 <1>         0.0000 
     11 O11        -3.9627    1.8990   -0.2420 O.3       1 <1>         0.0000 
     12 C12        -4.8089    0.7494   -0.3515 C.3       1 <1>         0.0000 
     13 C13        -6.2402    1.1716   -0.5289 C.2       1 <1>         0.0000 
     14 O14        -6.6029    2.3041    0.0678 O.3       1 <1>         0.0000 
     15 O15        -7.0284    0.5114   -1.1849 O.2       1 <1>         0.0000 
     16 H1         -1.5797    6.0939   -0.0508 H         1 <1>         0.0000 
     17 H2          0.8549    5.6240    0.0766 H         1 <1>         0.0000 
     18 H3          1.6666    3.2794    0.0699 H         1 <1>         0.0000 
     19 H4         -3.1992    4.2176   -0.1208 H         1 <1>         0.0000 
     20 H5         -2.8299   -0.5128   -0.1734 H         1 <1>         0.0000 
     21 H6         -0.3988   -0.9717   -0.0227 H         1 <1>         0.0000 
     22 H7          1.2177    0.9116    0.0309 H         1 <1>         0.0000 
     23 H8         -4.7195    0.1443    0.5627 H         1 <1>         0.0000 
     24 H9         -4.4969    0.1503   -1.2197 H         1 <1>         0.0000 
     25 H10        -7.5207    2.4749   -0.1083 H         1 <1>         0.0000 
@<TRIPOS>BOND
     1    2    1 ar   
     2    2    3 ar   
     3    3    4 ar   
     4    4    5 ar   
     5    5    6 ar   
     6    1    6 ar   
     7    5    7 ar   
     8    7    8 ar   
     9    8    9 ar   
    10    9   10 ar   
    11    4   10 ar   
    12    7   11 1    
    13   11   12 1    
    14   12   13 1    
    15   13   14 1    
    16   13   15 2    
    17    1   16 1    
    18    2   17 1    
    19    3   18 1    
    20    6   19 1    
    21    8   20 1    
    22    9   21 1    
    23   10   22 1    
    24   12   23 1    
    25   12   24 1    
    26   14   25 1    
@<TRIPOS>SUBSTRUCTURE
     1 ****        2 TEMP              0 ****  ****    0 ROOT 
@<TRIPOS>NORMAL
@<TRIPOS>FF_PBC
FORCE_FIELD_SETUP_FEATURE Force Field Setup information
v1.0  0 0.000000 0.000000 0.000000 0.000000 0.000000 0.000000 NONE 0 0 0 0 0 0 0 0 0 0 0 0 0
@<TRIPOS>RENDERING_ATTRS
ANTIALIASED_LINES 
*
