#	Name:			PISM00324
#	Creating user name:	baoopengkun
#	Creation time:		Wed Dec 26 16:08:01 2018

#	Modifying user name:	baoopengkun
#	Modification time:	Wed Dec 26 16:13:09 2018

@<TRIPOS>MOLECULE
PISM00324
  103   106     1     1     0
SMALL
GAST_HUCK


@<TRIPOS>ATOM
      1 C1         -0.1354  -19.4491  -25.6636 C.3       1 <1>        -0.0439 
      2 C2          0.8960  -20.0904  -24.6878 C.3       1 <1>         0.0170 
      3 C3          0.2706  -21.2037  -23.9020 C.2       1 <1>         0.1401 
      4 C4         -0.7826  -22.0738  -24.5466 C.ar      1 <1>         0.0312 
      5 C5         -1.2444  -21.7808  -25.8352 C.ar      1 <1>        -0.0611 
      6 C6         -0.7609  -20.5402  -26.6059 C.3       1 <1>         0.0299 
      7 O7          0.6201  -21.4065  -22.7499 O.2       1 <1>        -0.3711 
      8 C8         -1.2951  -23.1711  -23.8476 C.ar      1 <1>         0.0066 
      9 C9         -2.2629  -23.9896  -24.4324 C.ar      1 <1>         0.1212 
     10 C10        -2.6756  -23.7458  -25.7439 C.ar      1 <1>        -0.0074 
     11 C11        -2.1710  -22.6421  -26.4366 C.ar      1 <1>        -0.0576 
     12 O12        -2.8134  -25.0415  -23.7001 O.3       1 <1>        -0.3007 
     13 C13        -4.1641  -24.8278  -23.2536 C.3       1 <1>         0.0789 
     14 C14        -4.2690  -23.5601  -22.3641 C.3       1 <1>         0.0038 
     15 C15        -5.6808  -23.3967  -21.7482 C.3       1 <1>         0.0798 
     16 O16        -5.6970  -22.1556  -21.0160 O.3       1 <1>        -0.2638 
     17 C17        -6.8712  -21.8894  -20.4279 C.2       1 <1>         0.3195 
     18 O18        -7.8246  -22.6501  -20.4723 O.2       1 <1>        -0.3775 
     19 N19        -6.8775  -20.6997  -19.7925 N.am      1 <1>        -0.2625 
     20 C20        -8.0679  -20.2517  -19.0737 C.3       1 <1>         0.0328 
     21 C21        -8.0343  -20.8270  -17.6346 C.3       1 <1>        -0.0327 
     22 C22        -9.2595  -20.3569  -16.8041 C.3       1 <1>        -0.0494 
     23 C23        -9.1973  -20.8938  -15.3477 C.3       1 <1>        -0.0327 
     24 C24       -10.4167  -20.4173  -14.5131 C.3       1 <1>         0.0309 
     25 N25       -10.3480  -20.8703  -13.1253 N.am      1 <1>        -0.2870 
     26 C26       -11.2969  -20.4696  -12.2504 C.2       1 <1>         0.1760 
     27 O27       -12.2180  -19.7464  -12.5911 O.2       1 <1>        -0.3971 
     28 C28       -11.2003  -20.9340  -10.8170 C.3       1 <1>         0.0372 
     29 C29       -12.3452  -20.3794   -9.9254 C.3       1 <1>        -0.0360 
     30 C30       -12.1839  -20.8294   -8.4441 C.3       1 <1>        -0.0499 
     31 C31       -13.3330  -20.3236   -7.5176 C.3       1 <1>        -0.0388 
     32 C32       -14.5576  -21.2729   -7.3594 C.3       1 <1>         0.0302 
     33 S33       -15.1099  -22.1311   -8.8918 S.3       1 <1>        -0.1527 
     34 C34       -15.4425  -23.7925   -8.1766 C.3       1 <1>         0.0190 
     35 C35       -15.5202  -23.4166   -6.6859 C.3       1 <1>         0.0750 
     36 C36       -14.2990  -22.4987   -6.4559 C.3       1 <1>         0.0775 
     37 N37       -14.2653  -22.5156   -5.0046 N.am      1 <1>        -0.2668 
     38 C38       -14.7649  -23.6681   -4.5349 C.2       1 <1>         0.2580 
     39 O39       -14.6828  -24.0671   -3.3878 O.2       1 <1>        -0.4008 
     40 N40       -15.3704  -24.3043   -5.5479 N.am      1 <1>        -0.2671 
     41 C41        -1.2632  -18.7738  -24.8223 C.3       1 <1>        -0.0709 
     42 C42         0.6040  -18.3421  -26.4781 C.3       1 <1>        -0.0709 
     43 C43         0.2004  -21.0891  -27.6402 C.2       1 <1>        -0.0894 
     44 C44        -0.1319  -21.3283  -28.9161 C.2       1 <1>        -0.0172 
     45 C45         0.8296  -21.8567  -29.9078 C.2       1 <1>         0.0244 
     46 C46         2.2310  -21.2875  -29.9232 C.3       1 <1>        -0.0129 
     47 C47         0.4911  -22.8095  -30.7909 C.2       1 <1>         0.0649 
     48 C48        -0.8087  -23.4990  -30.9059 C.2       1 <1>         0.2748 
     49 O49        -1.6762  -23.3463  -30.0611 O.2       1 <1>        -0.3457 
     50 O50        -1.0301  -24.3076  -31.9438 O.3       1 <1>        -0.2917 
     51 H51        -1.8970  -24.6987  -31.9116 H         1 <1>         0.2518 
     52 O52        -1.9425  -20.0192  -27.2433 O.3       1 <1>        -0.4653 
     53 H1          1.2738  -19.3332  -23.9828 H         1 <1>         0.0477 
     54 H2          1.7648  -20.5041  -25.2170 H         1 <1>         0.0477 
     55 H3         -0.9496  -23.3961  -22.8446 H         1 <1>         0.0670 
     56 H4         -3.3862  -24.4118  -26.2215 H         1 <1>         0.0645 
     57 H5         -2.5072  -22.4567  -27.4518 H         1 <1>         0.0743 
     58 H6         -4.4477  -25.7168  -22.6686 H         1 <1>         0.0627 
     59 H7         -4.8480  -24.7511  -24.1144 H         1 <1>         0.0627 
     60 H8         -4.0475  -22.6631  -22.9654 H         1 <1>         0.0318 
     61 H9         -3.5260  -23.6225  -21.5524 H         1 <1>         0.0318 
     62 H10        -5.8939  -24.2495  -21.0810 H         1 <1>         0.0612 
     63 H11        -6.4331  -23.3722  -22.5552 H         1 <1>         0.0612 
     64 H12        -6.0523  -20.1321  -19.7774 H         1 <1>         0.1867 
     65 H13        -8.9871  -20.5766  -19.5895 H         1 <1>         0.0519 
     66 H14        -8.0864  -19.1496  -19.0306 H         1 <1>         0.0519 
     67 H15        -7.1040  -20.4953  -17.1450 H         1 <1>         0.0284 
     68 H16        -8.0217  -21.9280  -17.6882 H         1 <1>         0.0284 
     69 H17       -10.1849  -20.7119  -17.2870 H         1 <1>         0.0267 
     70 H18        -9.2819  -19.2549  -16.7827 H         1 <1>         0.0267 
     71 H19        -8.2739  -20.5346  -14.8643 H         1 <1>         0.0285 
     72 H20        -9.1769  -21.9960  -15.3596 H         1 <1>         0.0285 
     73 H21       -11.3445  -20.7977  -14.9718 H         1 <1>         0.0520 
     74 H22       -10.4523  -19.3151  -14.5289 H         1 <1>         0.0520 
     75 H23        -9.6010  -21.4723  -12.8389 H         1 <1>         0.1850 
     76 H24       -10.2288  -20.6026  -10.4188 H         1 <1>         0.0502 
     77 H25       -11.2275  -22.0347  -10.8094 H         1 <1>         0.0502 
     78 H26       -13.3052  -20.7202  -10.3393 H         1 <1>         0.0290 
     79 H27       -12.3285  -19.2776   -9.9744 H         1 <1>         0.0290 
     80 H28       -11.2322  -20.4022   -8.0841 H         1 <1>         0.0267 
     81 H29       -12.0914  -21.9240   -8.3968 H         1 <1>         0.0267 
     82 H30       -13.6801  -19.3464   -7.8910 H         1 <1>         0.0277 
     83 H31       -12.9388  -20.1609   -6.5004 H         1 <1>         0.0277 
     84 H32       -15.4066  -20.7075   -6.9399 H         1 <1>         0.0435 
     85 H33       -14.6013  -24.4732   -8.3786 H         1 <1>         0.0399 
     86 H34       -16.3786  -24.2305   -8.5558 H         1 <1>         0.0399 
     87 H35       -16.4616  -22.8620   -6.5171 H         1 <1>         0.0584 
     88 H36       -13.3821  -23.0172   -6.7822 H         1 <1>         0.0587 
     89 H37       -13.7904  -21.8326   -4.4520 H         1 <1>         0.1849 
     90 H38       -15.8021  -25.2027   -5.4831 H         1 <1>         0.1849 
     91 H39        -1.9635  -18.2231  -25.4677 H         1 <1>         0.0222 
     92 H40        -0.8395  -18.0555  -24.1039 H         1 <1>         0.0222 
     93 H41        -1.8407  -19.5211  -24.2583 H         1 <1>         0.0222 
     94 H42         1.4156  -18.7693  -27.0853 H         1 <1>         0.0222 
     95 H43         1.0490  -17.6009  -25.7966 H         1 <1>         0.0222 
     96 H44        -0.0777  -17.8022  -27.1500 H         1 <1>         0.0222 
     97 H45         1.2158  -21.3269  -27.3308 H         1 <1>         0.0514 
     98 H46        -1.1475  -21.1332  -29.2574 H         1 <1>         0.1108 
     99 H47         2.9076  -21.9688  -29.3855 H         1 <1>         0.0430 
    100 H48         2.2606  -20.3014  -29.4347 H         1 <1>         0.0430 
    101 H49         2.5992  -21.1595  -30.9529 H         1 <1>         0.0430 
    102 H50         1.2321  -23.1455  -31.5156 H         1 <1>         0.0983 
    103 H52        -1.7788  -19.2654  -27.7976 H         1 <1>         0.1810 
@<TRIPOS>BOND
     1    2    1 1    
     2    2    3 1    
     3    3    4 1    
     4    4    5 ar   
     5    5    6 1    
     6    1    6 1    
     7    3    7 2    
     8    4    8 ar   
     9    8    9 ar   
    10    9   10 ar   
    11   10   11 ar   
    12    5   11 ar   
    13    9   12 1    
    14   12   13 1    
    15   13   14 1    
    16   14   15 1    
    17   15   16 1    
    18   16   17 1    
    19   17   18 2    
    20   17   19 am   
    21   19   20 1    
    22   20   21 1    
    23   21   22 1    
    24   22   23 1    
    25   23   24 1    
    26   24   25 1    
    27   25   26 am   
    28   26   27 2    
    29   26   28 1    
    30   28   29 1    
    31   29   30 1    
    32   30   31 1    
    33   31   32 1    
    34   32   33 1    
    35   33   34 1    
    36   34   35 1    
    37   35   36 1    
    38   32   36 1    
    39   36   37 1    
    40   37   38 am   
    41   38   39 2    
    42   38   40 am   
    43   35   40 1    
    44    1   41 1    
    45    1   42 1    
    46    6   43 1    
    47   43   44 2    
    48   44   45 1    
    49   45   46 1    
    50   45   47 2    
    51   47   48 1    
    52   48   49 2    
    53   48   50 1    
    54   50   51 1    
    55    6   52 1    
    56    2   53 1    
    57    2   54 1    
    58    8   55 1    
    59   10   56 1    
    60   11   57 1    
    61   13   58 1    
    62   13   59 1    
    63   14   60 1    
    64   14   61 1    
    65   15   62 1    
    66   15   63 1    
    67   19   64 1    
    68   20   65 1    
    69   20   66 1    
    70   21   67 1    
    71   21   68 1    
    72   22   69 1    
    73   22   70 1    
    74   23   71 1    
    75   23   72 1    
    76   24   73 1    
    77   24   74 1    
    78   25   75 1    
    79   28   76 1    
    80   28   77 1    
    81   29   78 1    
    82   29   79 1    
    83   30   80 1    
    84   30   81 1    
    85   31   82 1    
    86   31   83 1    
    87   32   84 1    
    88   34   85 1    
    89   34   86 1    
    90   35   87 1    
    91   36   88 1    
    92   37   89 1    
    93   40   90 1    
    94   41   91 1    
    95   41   92 1    
    96   41   93 1    
    97   42   94 1    
    98   42   95 1    
    99   42   96 1    
   100   43   97 1    
   101   44   98 1    
   102   46   99 1    
   103   46  100 1    
   104   46  101 1    
   105   47  102 1    
   106   52  103 1    
@<TRIPOS>SUBSTRUCTURE
     1 ****        2 TEMP              0 ****  ****    0 ROOT 
@<TRIPOS>NORMAL
@<TRIPOS>FF_PBC
FORCE_FIELD_SETUP_FEATURE Force Field Setup information
v1.0  0 0.000000 0.000000 0.000000 0.000000 0.000000 0.000000 NONE 0 0 0 0 1 0 0 0 0 0 0 0 0
