#	Name:			PISM00237
#	Creating user name:	14062
#	Creation time:		Sat Apr 06 01:58:56 2019

#	Modifying user name:	14062
#	Modification time:	Sat Apr 06 02:01:18 2019

@<TRIPOS>MOLECULE
PISM00237
   33    34     1     1     0
SMALL
GAST_HUCK


@<TRIPOS>ATOM
      1 C1          9.9596    0.5846   -4.3268 C.2       1 BENZYL      0.2032 
      2 N2         10.6870    1.5988   -3.9369 N.pl3     1 BENZYL     -0.1964 
      3 C2         10.9845    2.3202   -5.0448 C.ar      1 BENZYL      0.1824 
      4 C3         10.3828    1.6715   -6.1136 C.ar      1 BENZYL      0.0802 
      5 C4         10.4673    2.1261   -7.4259 C.ar      1 BENZYL     -0.0135 
      6 C5         11.2149    3.2984   -7.6070 C.ar      1 BENZYL      0.0585 
      7 C6         11.8210    3.9244   -6.5032 C.ar      1 BENZYL      0.0247 
      8 N8         11.6986    3.4438   -5.2428 N.ar      1 BENZYL     -0.2522 
      9 N9          9.7713    0.6067   -5.5796 N.2       1 BENZYL     -0.2874 
     10 S10         9.3601   -0.6383   -3.1822 S.3       1 BENZYL     -0.0082 
     11 C11        10.7533   -1.7897   -3.4291 C.3       1 BENZYL      0.1179 
     12 C12        10.9976   -2.5463   -2.1542 C.2       1 BENZYL      0.2471 
     13 O13        11.6028   -3.7320   -2.3037 O.3       1 BENZYL     -0.2763 
     14 C14        11.8587   -4.4100   -1.0572 C.3       1 BENZYL      0.0740 
     15 C15        12.5818   -5.7408   -1.3732 C.3       1 BENZYL     -0.0371 
     16 C16        11.3823    3.9109   -9.0005 C.3       1 BENZYL      0.3741 
     17 F17        10.4329    3.4453   -9.8562 F         1 BENZYL     -0.2239 
     18 F18        11.2788    5.2653   -8.9251 F         1 BENZYL     -0.2239 
     19 F19        12.6115    3.5857   -9.4802 F         1 BENZYL     -0.2239 
     20 C20        11.1117    1.8975   -2.5753 C.3       1 BENZYL      0.0545 
     21 O21        10.6839   -2.0860   -1.0675 O.2       1 BENZYL     -0.3692 
     22 H1          9.9835    1.5985   -8.2404 H         1 BENZYL      0.0929 
     23 H2         12.4106    4.8229   -6.6544 H         1 BENZYL      0.0956 
     24 H3         11.6812   -1.2521   -3.6737 H         1 BENZYL      0.0669 
     25 H4         10.5059   -2.4782   -4.2504 H         1 BENZYL      0.0669 
     26 H5         10.9137   -4.6223   -0.5281 H         1 BENZYL      0.0610 
     27 H6         12.5039   -3.7963   -0.4049 H         1 BENZYL      0.0610 
     28 H7         11.9474   -6.3702   -2.0168 H         1 BENZYL      0.0255 
     29 H8         12.8024   -6.2896   -0.4441 H         1 BENZYL      0.0255 
     30 H9         13.5277   -5.5385   -1.9000 H         1 BENZYL      0.0255 
     31 H10        11.6829    1.0516   -2.1633 H         1 BENZYL      0.0582 
     32 H11        10.2292    2.0765   -1.9424 H         1 BENZYL      0.0582 
     33 H12        11.7493    2.7950   -2.5529 H         1 BENZYL      0.0582 
@<TRIPOS>BOND
     1    2    3 1    
     2    3    4 ar   
     3    3    8 ar   
     4    8    7 ar   
     5    7    6 ar   
     6    6    5 ar   
     7    5    4 ar   
     8    2    1 1    
     9    4    9 1    
    10    1    9 2    
    11    1   10 1    
    12   10   11 1    
    13   11   12 1    
    14   12   13 1    
    15   13   14 1    
    16   14   15 1    
    17    6   16 1    
    18   16   17 1    
    19   16   18 1    
    20   16   19 1    
    21    2   20 1    
    22   12   21 2    
    23    5   22 1    
    24    7   23 1    
    25   11   24 1    
    26   11   25 1    
    27   14   26 1    
    28   14   27 1    
    29   15   28 1    
    30   15   29 1    
    31   15   30 1    
    32   20   31 1    
    33   20   32 1    
    34   20   33 1    
@<TRIPOS>SUBSTRUCTURE
     1 BENZYL      2 PERM              0 ****  ****    0 ROOT 
@<TRIPOS>NORMAL
@<TRIPOS>FF_PBC
FORCE_FIELD_SETUP_FEATURE Force Field Setup information
v1.0  0 0.000000 0.000000 0.000000 0.000000 0.000000 0.000000 NONE 0 0 0 0 1 0 0 0 0 0 0 0 0
