#	Name:			PISM00757
#	Creating user name:	baoopengkun
#	Creation time:		Sun Dec 02 11:35:31 2018

#	Modifying user name:	baoopengkun
#	Modification time:	Sun Dec 02 11:38:43 2018

@<TRIPOS>MOLECULE
PISM00757
   34    36     1     2     0
SMALL
GAST_HUCK


@<TRIPOS>ATOM
      1 C1         -3.2792    7.1850   -4.8039 C.ar      1 <1>        -0.0509 
      2 C2         -3.9284    8.4218   -4.8472 C.ar      1 <1>        -0.0632 
      3 C3         -4.3577    8.9400   -6.0719 C.ar      1 <1>        -0.0642 
      4 C4         -4.1227    8.2292   -7.2523 C.ar      1 <1>        -0.0544 
      5 C5         -3.4624    6.9956   -7.2136 C.ar      1 <1>        -0.0236 
      6 C6         -3.0620    6.4637   -5.9827 C.ar      1 <1>         0.0283 
      7 C7         -2.3938    5.1075   -5.9431 C.2       1 <1>         0.1280 
      8 C8         -2.4284    4.2458   -7.1402 C.2       1 <1>         0.0209 
      9 C9         -3.2992    4.6953   -8.2905 C.3       1 <1>        -0.0164 
     10 C10        -3.1619    6.2237   -8.5052 C.3       1 <1>        -0.0109 
     11 O11        -1.8359    4.7248   -4.9269 O.2       1 <1>        -0.3941 
     12 C12        -1.7146    3.1118   -7.1881 C.2       1 <1>         0.0764 
     13 O13        -1.7639    2.3367   -8.2827 O.3       1 <1>        -0.2719 
     14 C14        -0.9845    1.1297   -8.1926 C.3       1 <1>         0.2384 
     15 O15        -1.1041    0.4495   -9.4579 O.3       1 <1>        -0.2305 
     16 C16        -1.7129   -0.6981   -9.1875 C.2       1 <1>         0.2495 
     17 C17        -2.0288   -0.9246   -7.7823 C.2       1 <1>         0.0293 
     18 C18        -1.5797    0.1753   -7.1813 C.2       1 <1>        -0.0010 
     19 C19        -2.6958   -2.1190   -7.1566 C.3       1 <1>        -0.0323 
     20 O20        -1.9805   -1.5072  -10.0591 O.2       1 <1>        -0.3691 
     21 H1         -2.9461    6.7842   -3.8517 H         1 <1>         0.0648 
     22 H2         -4.0995    8.9788   -3.9308 H         1 <1>         0.0571 
     23 H3         -4.8723    9.8956   -6.1062 H         1 <1>         0.0634 
     24 H4         -4.4536    8.6442   -8.1990 H         1 <1>         0.0568 
     25 H5         -4.3440    4.4530   -8.0388 H         1 <1>         0.0378 
     26 H6         -3.0452    4.1841   -9.2333 H         1 <1>         0.0378 
     27 H7         -3.8417    6.5376   -9.3141 H         1 <1>         0.0454 
     28 H8         -2.1296    6.4648   -8.8054 H         1 <1>         0.0454 
     29 H9         -1.1052    2.8537   -6.3185 H         1 <1>         0.1072 
     30 H10         0.0836    1.3286   -8.0002 H         1 <1>         0.1210 
     31 H11        -1.6420    0.3541   -6.1087 H         1 <1>         0.0706 
     32 H12        -2.8564   -2.9054   -7.9093 H         1 <1>         0.0347 
     33 H13        -3.6686   -1.8210   -6.7382 H         1 <1>         0.0347 
     34 H14        -2.0636   -2.5207   -6.3507 H         1 <1>         0.0347 
@<TRIPOS>BOND
     1    2    1 ar   
     2    2    3 ar   
     3    3    4 ar   
     4    4    5 ar   
     5    5    6 ar   
     6    1    6 ar   
     7    6    7 1    
     8    7    8 1    
     9    8    9 1    
    10    9   10 1    
    11    5   10 1    
    12    7   11 2    
    13    8   12 2    
    14   12   13 1    
    15   13   14 1    
    16   14   15 1    
    17   15   16 1    
    18   16   17 1    
    19   17   18 2    
    20   14   18 1    
    21   17   19 1    
    22   16   20 2    
    23    1   21 1    
    24    2   22 1    
    25    3   23 1    
    26    4   24 1    
    27    9   25 1    
    28    9   26 1    
    29   10   27 1    
    30   10   28 1    
    31   12   29 1    
    32   14   30 1    
    33   18   31 1    
    34   19   32 1    
    35   19   33 1    
    36   19   34 1    
@<TRIPOS>SUBSTRUCTURE
     1 ****        2 TEMP              0 ****  ****    0 ROOT 
@<TRIPOS>NORMAL
@<TRIPOS>FF_PBC
FORCE_FIELD_SETUP_FEATURE Force Field Setup information
v1.0  0 0.000000 0.000000 0.000000 0.000000 0.000000 0.000000 NONE 0 0 0 0 1 0 0 0 0 0 0 0 0
@<TRIPOS>RENDERING_ATTRS
ANTIALIASED_LINES 
*
