#	Name:			PISM00875
#	Creating user name:	baoopengkun
#	Creation time:		Sat Jan 12 21:11:02 2019

#	Modifying user name:	baoopengkun
#	Modification time:	Sat Jan 12 21:17:35 2019

@<TRIPOS>MOLECULE
PISM00875
   25    26     1     1     0
SMALL
GAST_HUCK


@<TRIPOS>ATOM
      1 C1         -3.5097   -3.6434   -0.8632 C.1       1 <1>         0.0923 
      2 C2         -2.4438   -5.1787   -2.4667 C.ar      1 <1>        -0.0253 
      3 C3         -1.3007   -5.8091   -2.9672 C.ar      1 <1>         0.0127 
      4 Br4        -1.4352   -6.9610   -4.4115 Br        1 <1>        -0.0572 
      5 C5         -0.0558   -5.5693   -2.3776 C.ar      1 <1>        -0.0522 
      6 C6          0.0449   -4.7026   -1.2854 C.ar      1 <1>        -0.0176 
      7 C7         -1.0969   -4.0730   -0.7836 C.ar      1 <1>         0.1388 
      8 C8         -2.3403   -4.3080   -1.3779 C.ar      1 <1>         0.1274 
      9 O9         -0.9876   -3.2132    0.3085 O.3       1 <1>        -0.2582 
     10 C10        -0.9117   -1.8327   -0.0701 C.3       1 <1>         0.2392 
     11 O11         0.2084   -1.6468   -0.9588 O.3       1 <1>        -0.2307 
     12 C12         1.0674   -0.8943   -0.2838 C.2       1 <1>         0.2495 
     13 O13         2.1490   -0.5778   -0.7480 O.2       1 <1>        -0.3691 
     14 C14         0.6256   -0.4701    1.0399 C.2       1 <1>         0.0292 
     15 C15        -0.5775   -1.0282    1.1613 C.2       1 <1>        -0.0013 
     16 C16         1.3564    0.4062    2.0202 C.3       1 <1>        -0.0323 
     17 N17        -4.4440   -3.1000   -0.4495 N.1       1 <1>        -0.3386 
     18 H1         -3.4106   -5.3643   -2.9238 H         1 <1>         0.0718 
     19 H2          0.8327   -6.0557   -2.7679 H         1 <1>         0.0686 
     20 H3          1.0082   -4.5133   -0.8231 H         1 <1>         0.0575 
     21 H4         -1.8426   -1.4688   -0.5362 H         1 <1>         0.1206 
     22 H5         -1.2316   -0.9298    2.0268 H         1 <1>         0.0706 
     23 H6          1.9902   -0.2193    2.6662 H         1 <1>         0.0347 
     24 H7          0.6442    0.9655    2.6455 H         1 <1>         0.0347 
     25 H8          1.9930    1.1218    1.4787 H         1 <1>         0.0347 
@<TRIPOS>BOND
     1    8    1 1    
     2    2    3 ar   
     3    3    4 1    
     4    3    5 ar   
     5    5    6 ar   
     6    6    7 ar   
     7    7    8 ar   
     8    2    8 ar   
     9    7    9 1    
    10    9   10 1    
    11   10   11 1    
    12   11   12 1    
    13   12   13 2    
    14   12   14 1    
    15   14   15 2    
    16   10   15 1    
    17   14   16 1    
    18    1   17 3    
    19    2   18 1    
    20    5   19 1    
    21    6   20 1    
    22   10   21 1    
    23   15   22 1    
    24   16   23 1    
    25   16   24 1    
    26   16   25 1    
@<TRIPOS>SUBSTRUCTURE
     1 ****        2 TEMP              0 ****  ****    0 ROOT 
@<TRIPOS>NORMAL
@<TRIPOS>FF_PBC
FORCE_FIELD_SETUP_FEATURE Force Field Setup information
v1.0  0 0.000000 0.000000 0.000000 0.000000 0.000000 0.000000 NONE 0 0 0 0 1 0 0 0 0 0 0 0 0
