#	Name:			PISM00118
#	Creating user name:	baoopengkun
#	Creation time:		Mon Dec 17 14:24:40 2018

#	Modifying user name:	baoopengkun
#	Modification time:	Mon Dec 17 14:26:39 2018

@<TRIPOS>MOLECULE
PISM00118
   40    43     1     1     0
SMALL
GAST_HUCK


@<TRIPOS>ATOM
      1 C1         18.3761   10.1661    9.5994 C.ar      1 PHENYL     -0.0190 
      2 C          19.7063   10.5467    9.0647 C.ar      1 PHENYL      0.0263 
      3 C          20.5408    9.5606    8.5303 C.ar      1 PHENYL      0.1607 
      4 C          21.7979    9.9156    8.0419 C.ar      1 PHENYL      0.0550 
      5 C          22.2257   11.2460    8.0660 C.ar      1 PHENYL     -0.0511 
      6 C          21.3842   12.2310    8.5913 C.ar      1 PHENYL     -0.0650 
      7 C          20.1269   11.8804    9.0930 C.ar      1 PHENYL     -0.0555 
      8 C8         17.2160   10.7497    9.0808 C.ar      1 PHENYL     -0.0564 
      9 C9         15.9628   10.3750    9.5742 C.ar      1 PHENYL     -0.0628 
     10 C10        15.8677    9.4131   10.5843 C.ar      1 PHENYL     -0.0632 
     11 C11        17.0271    8.8344   11.1088 C.ar      1 PHENYL     -0.0628 
     12 C12        18.2803    9.2179   10.6229 C.ar      1 PHENYL     -0.0564 
     13 O13        20.1054    8.2314    8.4893 O.3       1 PHENYL     -0.2039 
     14 C14        20.8427    7.2154    8.0062 C.2       1 PHENYL      0.2138 
     15 C15        22.0776    7.4432    7.5262 C.2       1 PHENYL      0.0079 
     16 C16        22.6461    8.7962    7.4986 C.2       1 PHENYL      0.0869 
     17 O17        23.7626    9.0046    7.0532 O.2       1 PHENYL     -0.4341 
     18 N18        20.2790    6.0258    8.0433 N.pl3     1 PHENYL     -0.2584 
     19 C19        18.9579    5.8415    8.6632 C.3       1 PHENYL      0.0607 
     20 C20        18.9746    4.4837    9.4123 C.3       1 PHENYL      0.0689 
     21 O21        19.2286    3.3453    8.5671 O.3       1 PHENYL     -0.3756 
     22 C22        19.9063    3.6754    7.3414 C.3       1 PHENYL      0.0689 
     23 C23        20.9337    4.8265    7.5023 C.3       1 PHENYL      0.0607 
     24 H1         23.2049   11.5100    7.6791 H         1 PHENYL      0.0641 
     25 H2         21.7076   13.2674    8.6104 H         1 PHENYL      0.0553 
     26 H3         19.4775   12.6455    9.5071 H         1 PHENYL      0.0631 
     27 H4         17.2862   11.4924    8.2923 H         1 PHENYL      0.0609 
     28 H5         15.0628   10.8305    9.1723 H         1 PHENYL      0.0614 
     29 H6         14.8937    9.1161   10.9615 H         1 PHENYL      0.0605 
     30 H7         16.9541    8.0878   11.8939 H         1 PHENYL      0.0614 
     31 H8         19.1798    8.7780   11.0424 H         1 PHENYL      0.0609 
     32 H9         22.7417    6.6740    7.1384 H         1 PHENYL      0.0124 
     33 H10        18.1735    5.8491    7.8905 H         1 PHENYL      0.0555 
     34 H11        18.7025    6.6076    9.4134 H         1 PHENYL      0.0555 
     35 H12        18.0273    4.3059    9.9458 H         1 PHENYL      0.0581 
     36 H13        19.7854    4.5214   10.1580 H         1 PHENYL      0.0581 
     37 H14        19.1452    3.9776    6.6037 H         1 PHENYL      0.0581 
     38 H15        20.3913    2.7603    6.9655 H         1 PHENYL      0.0581 
     39 H16        21.3435    5.0017    6.4938 H         1 PHENYL      0.0555 
     40 H17        21.7412    4.5059    8.1801 H         1 PHENYL      0.0555 
@<TRIPOS>BOND
     1    2    3 ar   
     2    2    7 ar   
     3    7    6 ar   
     4    6    5 ar   
     5    5    4 ar   
     6    4    3 ar   
     7    2    1 1    
     8    1    8 ar   
     9    8    9 ar   
    10    9   10 ar   
    11   10   11 ar   
    12   11   12 ar   
    13    1   12 ar   
    14    3   13 1    
    15   13   14 1    
    16   14   15 2    
    17   15   16 1    
    18   16   17 2    
    19    4   16 1    
    20   14   18 1    
    21   18   19 1    
    22   19   20 1    
    23   20   21 1    
    24   21   22 1    
    25   22   23 1    
    26   18   23 1    
    27    5   24 1    
    28    6   25 1    
    29    7   26 1    
    30    8   27 1    
    31    9   28 1    
    32   10   29 1    
    33   11   30 1    
    34   12   31 1    
    35   15   32 1    
    36   19   33 1    
    37   19   34 1    
    38   20   35 1    
    39   20   36 1    
    40   22   37 1    
    41   22   38 1    
    42   23   39 1    
    43   23   40 1    
@<TRIPOS>SUBSTRUCTURE
     1 PHENYL      2 PERM              0 ****  ****    0 ROOT 
@<TRIPOS>NORMAL
@<TRIPOS>FF_PBC
FORCE_FIELD_SETUP_FEATURE Force Field Setup information
v1.0  0 0.000000 0.000000 0.000000 0.000000 0.000000 0.000000 NONE 0 0 0 0 1 0 0 0 0 0 0 0 0
