#	Name:			PISM00902
#	Creating user name:	baoopengkun
#	Creation time:		Fri Dec 14 10:23:48 2018

#	Modifying user name:	baoopengkun
#	Modification time:	Fri Dec 14 10:25:36 2018

@<TRIPOS>MOLECULE
PISM00902
   40    41     1     1     0
SMALL
GAST_HUCK


@<TRIPOS>ATOM
      1 C1         20.3494    3.8492   -9.2678 C.ar      1 <1>        -0.0509 
      2 C2         20.2372    2.7531   -8.4044 C.ar      1 <1>        -0.0739 
      3 C3         20.5200    2.8919   -7.0449 C.ar      1 <1>        -0.0820 
      4 C4         20.9442    4.1267   -6.5524 C.ar      1 <1>        -0.0736 
      5 C5         21.0504    5.2326   -7.4036 C.ar      1 <1>        -0.0459 
      6 C6         20.6601    5.1172   -8.7487 C.ar      1 <1>        -0.0426 
      7 C7         20.5670    6.3640   -9.6481 C.3       1 <1>        -0.0363 
      8 C8         20.1339    3.6224  -10.7727 C.3       1 <1>        -0.0353 
      9 C9         21.6067    6.5375   -6.8083 C.3       1 <1>        -0.0030 
     10 C10        20.4889    7.3012   -6.0539 C.3       1 <1>         0.0412 
     11 N11        21.0168    8.5768   -5.5754 N.am      1 <1>        -0.2605 
     12 C12        21.1705    9.6029   -6.4374 C.2       1 <1>         0.3248 
     13 O13        20.8603    9.5410   -7.6156 O.2       1 <1>        -0.3773 
     14 O14        21.6934   10.6946   -5.8659 O.3       1 <1>        -0.2139 
     15 C15        21.9500   11.7665   -6.7891 C.3       1 <1>         0.2419 
     16 C16        20.7213   12.2278   -7.5378 C.2       1 <1>        -0.0022 
     17 C17        20.9322   12.1541   -8.8509 C.2       1 <1>         0.0291 
     18 C18        22.2959   11.6418   -8.9568 C.2       1 <1>         0.2494 
     19 O19        22.9026   11.3867   -7.8031 O.3       1 <1>        -0.2315 
     20 C20        19.9822   12.5068   -9.9621 C.3       1 <1>        -0.0323 
     21 O21        22.8490   11.4620  -10.0284 O.2       1 <1>        -0.3691 
     22 H1         19.9296    1.7831   -8.7819 H         1 <1>         0.0482 
     23 H2         20.4147    2.0436   -6.3753 H         1 <1>         0.0525 
     24 H3         21.1915    4.2187   -5.4994 H         1 <1>         0.0482 
     25 H4         21.5576    6.5696  -10.0804 H         1 <1>         0.0361 
     26 H5         20.2307    7.2457   -9.0858 H         1 <1>         0.0361 
     27 H6         19.8437    6.2324  -10.4644 H         1 <1>         0.0361 
     28 H7         20.8738    4.1902  -11.3567 H         1 <1>         0.0374 
     29 H8         19.1188    3.9432  -11.0500 H         1 <1>         0.0374 
     30 H9         20.2472    2.5612  -11.0411 H         1 <1>         0.0374 
     31 H10        22.0592    7.1696   -7.5863 H         1 <1>         0.0429 
     32 H11        22.4140    6.3015   -6.0967 H         1 <1>         0.0429 
     33 H12        20.1337    6.6872   -5.2090 H         1 <1>         0.0540 
     34 H13        19.6248    7.4699   -6.7167 H         1 <1>         0.0540 
     35 H14        21.2991    8.6671   -4.6185 H         1 <1>         0.1869 
     36 H15        22.3650   12.6148   -6.2222 H         1 <1>         0.1194 
     37 H16        19.7991   12.5675   -7.0686 H         1 <1>         0.0704 
     38 H17        19.0224   11.9910   -9.8089 H         1 <1>         0.0347 
     39 H18        20.4000   12.2007  -10.9329 H         1 <1>         0.0347 
     40 H19        19.8118   13.5935   -9.9718 H         1 <1>         0.0347 
@<TRIPOS>BOND
     1    2    1 ar   
     2    2    3 ar   
     3    3    4 ar   
     4    4    5 ar   
     5    5    6 ar   
     6    1    6 ar   
     7    6    7 1    
     8    1    8 1    
     9    5    9 1    
    10    9   10 1    
    11   10   11 1    
    12   11   12 am   
    13   12   13 2    
    14   12   14 1    
    15   14   15 1    
    16   15   16 1    
    17   16   17 2    
    18   17   18 1    
    19   18   19 1    
    20   15   19 1    
    21   17   20 1    
    22   18   21 2    
    23    2   22 1    
    24    3   23 1    
    25    4   24 1    
    26    7   25 1    
    27    7   26 1    
    28    7   27 1    
    29    8   28 1    
    30    8   29 1    
    31    8   30 1    
    32    9   31 1    
    33    9   32 1    
    34   10   33 1    
    35   10   34 1    
    36   11   35 1    
    37   15   36 1    
    38   16   37 1    
    39   20   38 1    
    40   20   39 1    
    41   20   40 1    
@<TRIPOS>SUBSTRUCTURE
     1 ****        2 TEMP              0 ****  ****    0 ROOT 
@<TRIPOS>NORMAL
@<TRIPOS>FF_PBC
FORCE_FIELD_SETUP_FEATURE Force Field Setup information
v1.0  0 0.000000 0.000000 0.000000 0.000000 0.000000 0.000000 NONE 0 0 0 0 1 0 0 0 0 0 0 0 0
