#	Name:			PISM00799.1
#	Creating user name:	baoopengkun
#	Creation time:		Sat Dec 15 02:12:16 2018

#	Modifying user name:	baoopengkun
#	Modification time:	Sat Dec 15 02:14:27 2018

@<TRIPOS>MOLECULE
PISM00799.1
   36    38     1     1     0
SMALL
GAST_HUCK


@<TRIPOS>ATOM
      1 C1         -2.5985   15.6131  -40.7175 C.3       1 <1>        -0.0153 
      2 C2         -3.4753   16.5057  -39.8006 C.3       1 <1>        -0.0314 
      3 C3         -2.6545   17.0731  -38.6169 C.3       1 <1>         0.0014 
      4 S4         -1.4965   18.3374  -39.2285 S.3       1 <1>        -0.1312 
      5 C5         -0.8040   17.3956  -40.5746 C.2       1 <1>         0.0367 
      6 C6         -1.3192   16.2960  -41.1343 C.2       1 <1>        -0.0346 
      7 C7         -0.4988   15.7172  -42.2733 C.3       1 <1>         0.0169 
      8 C8         -1.2251   15.8180  -43.6404 C.3       1 <1>        -0.0459 
      9 C9          0.6859   16.6521  -42.2327 C.2       1 <1>         0.0303 
     10 C10         0.4554   17.7070  -41.2476 C.2       1 <1>         0.1059 
     11 O11         1.1930   18.6540  -41.0306 O.2       1 <1>        -0.4199 
     12 C12         1.7912   16.5350  -42.9756 C.2       1 <1>         0.0846 
     13 O13         1.9080   15.5078  -43.8295 O.3       1 <1>        -0.2656 
     14 C14         3.1453   15.4941  -44.5624 C.3       1 <1>         0.2404 
     15 C15         4.3468   15.3590  -43.6569 C.2       1 <1>        -0.0006 
     16 C16         5.1813   16.3801  -43.8437 C.2       1 <1>         0.0293 
     17 C17         4.5217   17.1825  -44.8691 C.2       1 <1>         0.2496 
     18 O18         3.3481   16.7235  -45.2881 O.3       1 <1>        -0.2302 
     19 C19         6.4997   16.6449  -43.1699 C.3       1 <1>        -0.0323 
     20 O20         5.0080   18.2087  -45.3111 O.2       1 <1>        -0.3691 
     21 H1         -3.2010   15.3364  -41.5954 H         1 <1>         0.0455 
     22 H2         -2.3221   14.6883  -40.1865 H         1 <1>         0.0455 
     23 H3         -4.3143   15.9037  -39.4121 H         1 <1>         0.0300 
     24 H4         -3.8956   17.3443  -40.3808 H         1 <1>         0.0300 
     25 H5         -2.0964   16.2745  -38.1034 H         1 <1>         0.0393 
     26 H6         -3.3200   17.5636  -37.8889 H         1 <1>         0.0393 
     27 H7         -0.1835   14.6847  -42.0521 H         1 <1>         0.0583 
     28 H8         -0.5448   15.5515  -44.4627 H         1 <1>         0.0274 
     29 H9         -1.5831   16.8467  -43.8023 H         1 <1>         0.0274 
     30 H10        -2.0836   15.1322  -43.6824 H         1 <1>         0.0274 
     31 H11         2.5552   17.3034  -42.8347 H         1 <1>         0.1146 
     32 H12         3.1236   14.6530  -45.2740 H         1 <1>         0.1214 
     33 H13         4.5020   14.5405  -42.9552 H         1 <1>         0.0706 
     34 H14         6.9960   15.6985  -42.9077 H         1 <1>         0.0347 
     35 H15         6.3292   17.2292  -42.2537 H         1 <1>         0.0347 
     36 H16         7.1564   17.2169  -43.8425 H         1 <1>         0.0347 
@<TRIPOS>BOND
     1    2    1 1    
     2    2    3 1    
     3    3    4 1    
     4    4    5 1    
     5    5    6 2    
     6    1    6 1    
     7    6    7 1    
     8    7    8 1    
     9    7    9 1    
    10    9   10 1    
    11    5   10 1    
    12   10   11 2    
    13    9   12 2    
    14   12   13 1    
    15   13   14 1    
    16   14   15 1    
    17   15   16 2    
    18   16   17 1    
    19   17   18 1    
    20   14   18 1    
    21   16   19 1    
    22   17   20 2    
    23    1   21 1    
    24    1   22 1    
    25    2   23 1    
    26    2   24 1    
    27    3   25 1    
    28    3   26 1    
    29    7   27 1    
    30    8   28 1    
    31    8   29 1    
    32    8   30 1    
    33   12   31 1    
    34   14   32 1    
    35   15   33 1    
    36   19   34 1    
    37   19   35 1    
    38   19   36 1    
@<TRIPOS>SUBSTRUCTURE
     1 ****        2 TEMP              0 ****  ****    0 ROOT 
@<TRIPOS>NORMAL
@<TRIPOS>FF_PBC
FORCE_FIELD_SETUP_FEATURE Force Field Setup information
v1.0  0 0.000000 0.000000 0.000000 0.000000 0.000000 0.000000 NONE 0 0 0 0 1 0 0 0 0 0 0 0 0
