#	Name:			PISM00147
#	Creating user name:	14062
#	Creation time:		Sat Oct 19 22:24:58 2019

#	Modifying user name:	14062
#	Modification time:	Sat Oct 19 22:28:27 2019

@<TRIPOS>MOLECULE
PISM00147
   31    32     2     1     0
SMALL
GAST_HUCK


@<TRIPOS>ATOM
      1 C1          1.7071    2.1439    5.3024 C.3       1 BENZYL      0.1325 
      2 C1          3.2227    1.9861    4.9241 C.3       1 BENZYL      0.2383 
      3 C2          3.2796    2.5777    3.5184 C.ar      1 BENZYL      0.0221 
      4 C3          2.0467    3.1241    3.2066 C.ar      1 BENZYL      0.0410 
      5 C4          1.8174    3.7762    1.9946 C.ar      1 BENZYL     -0.0523 
      6 C5          2.8809    3.8479    1.0864 C.ar      1 BENZYL     -0.0471 
      7 C6          4.1257    3.2803    1.3914 C.ar      1 BENZYL      0.1115 
      8 C7          4.3392    2.6300    2.6121 C.ar      1 BENZYL     -0.0345 
      9 N9          1.1654    2.9314    4.2023 N.pl3     1 BENZYL     -0.3117 
     10 F10         5.1199    3.3608    0.5133 F         1 BENZYL     -0.1964 
     11 N           4.1150    2.7817    5.7428 N.2       2 NO          0.1721 
     12 O           5.0485    2.2457    6.3310 O.2       2 NO          0.0926 
     13 O13         3.9195    4.1715    5.8722 O.3       2 NO         -0.0551 
     14 S14         1.4377    3.0267    6.8741 S.3       1 BENZYL     -0.1056 
     15 C15         1.9941    1.8111    8.1158 C.3       1 BENZYL      0.0970 
     16 C16         2.8929    2.5284    9.0826 C.2       1 BENZYL      0.2436 
     17 O17         2.6726    2.5200   10.2826 O.2       1 BENZYL     -0.3695 
     18 O18         3.9398    3.1586    8.5282 O.3       1 BENZYL     -0.2796 
     19 C19         4.7734    3.8347    9.4916 C.3       1 BENZYL      0.0658 
     20 H1          1.1845    1.1725    5.3241 H         1 BENZYL      0.0721 
     21 H2          3.5237    0.9257    4.8913 H         1 BENZYL      0.0954 
     22 H3          0.8493    4.2097    1.7660 H         1 BENZYL      0.0485 
     23 H4          2.7441    4.3476    0.1329 H         1 BENZYL      0.0513 
     24 H5          5.3000    2.1832    2.8435 H         1 BENZYL      0.0509 
     25 H6          0.2069    3.3188    4.1970 H         1 BENZYL      0.1735 
     26 H7          4.4673    4.6771    5.2792 H         2 NO          0.4439 
     27 H8          2.5573    0.9858    7.6579 H         1 BENZYL      0.0633 
     28 H9          1.1154    1.4017    8.6366 H         1 BENZYL      0.0633 
     29 H10         5.2039    3.1252   10.2169 H         1 BENZYL      0.0577 
     30 H11         4.2095    4.6121   10.0325 H         1 BENZYL      0.0577 
     31 H12         5.5989    4.3195    8.9504 H         1 BENZYL      0.0577 
@<TRIPOS>BOND
     1    2    3 1    
     2    3    4 ar   
     3    3    8 ar   
     4    8    7 ar   
     5    7    6 ar   
     6    6    5 ar   
     7    5    4 ar   
     8    2    1 1    
     9    1    9 1    
    10    4    9 1    
    11    7   10 1    
    12   11   12 2    
    13    2   11 1    
    14   11   13 1    
    15    1   14 1    
    16   14   15 1    
    17   15   16 1    
    18   16   17 2    
    19   16   18 1    
    20   18   19 1    
    21    1   20 1    
    22    2   21 1    
    23    5   22 1    
    24    6   23 1    
    25    8   24 1    
    26    9   25 1    
    27   13   26 1    
    28   15   27 1    
    29   15   28 1    
    30   19   29 1    
    31   19   30 1    
    32   19   31 1    
@<TRIPOS>SUBSTRUCTURE
     1 BENZYL      2 PERM              0 ****  ****    1 ROOT 
     2 NO         11 PERM              0 ****  ****    1  
@<TRIPOS>NORMAL
@<TRIPOS>FF_PBC
FORCE_FIELD_SETUP_FEATURE Force Field Setup information
v1.0  0 0.000000 0.000000 0.000000 0.000000 0.000000 0.000000 NONE 0 0 0 0 1 0 0 0 0 0 0 0 0
