#	Name:			PISM01054
#	Creating user name:	malab
#	Creation time:		Thu Jul 04 18:27:40 2019

#	Modifying user name:	malab
#	Modification time:	Thu Jul 04 18:35:38 2019

@<TRIPOS>MOLECULE
PISM01054
   51    52     1     1     0
SMALL
GAST_HUCK


@<TRIPOS>ATOM
      1 C1         -0.3442   -1.3197   29.5448 C.3       1 <1>        -0.1025 
      2 C2          0.0993   -2.1559   28.3065 C.3       1 <1>        -0.1056 
      3 C3          0.0391   -1.3195   27.0100 C.3       1 <1>        -0.0399 
      4 C4         -1.4284   -0.8901   26.7826 C.3       1 <1>         0.0352 
      5 C5         -2.0895   -0.3248   28.0202 C.2       1 <1>         0.0179 
      6 C6         -1.5996   -0.5121   29.2587 C.2       1 <1>        -0.0702 
      7 C7         -0.5844   -2.3128   30.7217 C.3       1 <1>        -0.1223 
      8 C8          0.7641   -0.3070   29.9636 C.3       1 <1>        -0.1223 
      9 H9          0.6906   -0.4361   27.0830 H         1 <1>         0.0307 
     10 C10        -2.2934    0.1031   30.4076 C.2       1 <1>        -0.0855 
     11 C11        -2.2261    1.4216   30.6308 C.2       1 <1>        -0.0661 
     12 C12        -2.9186    2.1089   31.7444 C.2       1 <1>         0.0821 
     13 C13        -3.3564    0.4653   27.7561 C.3       1 <1>         0.0256 
     14 H14        -3.0843    1.4457   27.3381 H         1 <1>         0.0689 
     15 C15        -2.9247    3.4438   31.8509 C.2       1 <1>         0.1117 
     16 C16        -3.6473    1.3377   32.7726 C.2       1 <1>         0.2443 
     17 O17        -2.2780    4.1898   30.9414 O.3       1 <1>        -0.2456 
     18 C18        -2.3628    5.6032   31.1891 C.3       1 <1>         0.2473 
     19 O19        -3.7437    6.0183   31.2025 O.3       1 <1>        -0.2289 
     20 C20        -3.8777    6.8216   30.1545 C.2       1 <1>         0.2497 
     21 O21        -4.9461    7.3335   29.8688 O.2       1 <1>        -0.3691 
     22 C22        -2.6635    7.0508   29.3793 C.2       1 <1>         0.0294 
     23 C23        -1.7480    6.3198   30.0121 C.2       1 <1>         0.0008 
     24 C24        -2.4851    7.9161   28.1618 C.3       1 <1>        -0.0323 
     25 H1         -0.5728   -3.0206   28.1781 H         1 <1>         0.0057 
     26 H2          1.1197   -2.5465   28.4514 H         1 <1>         0.0057 
     27 H3          0.3895   -1.9208   26.1538 H         1 <1>         0.0307 
     28 H4         -2.0194   -1.7655   26.4687 H         1 <1>         0.0723 
     29 H5         -1.4492   -0.1510   25.9653 H         1 <1>         0.0723 
     30 H6         -1.4419   -2.9669   30.4997 H         1 <1>         0.0017 
     31 H7         -0.7894   -1.7909   31.6673 H         1 <1>         0.0017 
     32 H8          0.3045   -2.9438   30.8762 H         1 <1>         0.0017 
     33 H10         1.7230   -0.8237   30.1214 H         1 <1>         0.0017 
     34 H11         0.4953    0.1969   30.9037 H         1 <1>         0.0017 
     35 H12         0.9099    0.4764   29.2067 H         1 <1>         0.0017 
     36 H13        -2.8677   -0.5511   31.0632 H         1 <1>         0.0435 
     37 H15        -1.6263    2.0122   29.9372 H         1 <1>         0.0568 
     38 H16        -3.9799    0.6304   28.6463 H         1 <1>         0.0689 
     39 H17        -3.9792   -0.0689   27.0231 H         1 <1>         0.0689 
     40 H18        -3.4704    3.8842   32.6910 H         1 <1>         0.1365 
     41 O41        -4.8659    1.3471   32.7497 O.2       1 <1>        -0.3736 
     42 O42        -3.0189    0.6486   33.7393 O.3       1 <1>        -0.2854 
     43 C43        -1.5859    0.7956   33.7834 C.3       1 <1>         0.0640 
     44 H22        -1.8574    5.8963   32.1252 H         1 <1>         0.1231 
     45 H23        -0.7012    6.2419   29.7206 H         1 <1>         0.0707 
     46 H24        -1.5940    8.5511   28.2776 H         1 <1>         0.0347 
     47 H25        -3.3655    8.5609   28.0202 H         1 <1>         0.0347 
     48 H26        -2.3618    7.2792   27.2734 H         1 <1>         0.0347 
     49 H19        -1.2262    0.2075   34.6405 H         1 <1>         0.0574 
     50 H20        -1.2920    1.8453   33.9407 H         1 <1>         0.0574 
     51 H21        -1.0948    0.4062   32.8814 H         1 <1>         0.0574 
@<TRIPOS>BOND
     1    2    1 1    
     2    2    3 1    
     3    3    4 1    
     4    4    5 1    
     5    5    6 2    
     6    1    6 1    
     7    1    7 1    
     8    1    8 1    
     9    3    9 1    
    10    6   10 1    
    11   10   11 2    
    12   11   12 1    
    13    5   13 1    
    14   13   14 1    
    15   12   15 2    
    16   12   16 1    
    17   15   17 1    
    18   17   18 1    
    19   18   19 1    
    20   19   20 1    
    21   20   21 2    
    22   20   22 1    
    23   22   23 2    
    24   18   23 1    
    25   22   24 1    
    26    2   25 1    
    27    2   26 1    
    28    3   27 1    
    29    4   28 1    
    30    4   29 1    
    31    7   30 1    
    32    7   31 1    
    33    7   32 1    
    34    8   33 1    
    35    8   34 1    
    36    8   35 1    
    37   10   36 1    
    38   11   37 1    
    39   13   38 1    
    40   13   39 1    
    41   15   40 1    
    42   16   41 2    
    43   16   42 1    
    44   42   43 1    
    45   18   44 1    
    46   23   45 1    
    47   24   46 1    
    48   24   47 1    
    49   24   48 1    
    50   43   49 1    
    51   43   50 1    
    52   43   51 1    
@<TRIPOS>SUBSTRUCTURE
     1 ****        2 TEMP              0 ****  ****    0 ROOT 
@<TRIPOS>NORMAL
@<TRIPOS>FF_PBC
FORCE_FIELD_SETUP_FEATURE Force Field Setup information
v1.0  0 0.000000 0.000000 0.000000 0.000000 0.000000 0.000000 NONE 0 0 0 0 1 0 0 0 0 0 0 0 0
