#	Name:			PISM00765
#	Creating user name:	baoopengkun
#	Creation time:		Sun Dec 02 11:38:55 2018

#	Modifying user name:	baoopengkun
#	Modification time:	Sun Dec 02 12:02:02 2018

@<TRIPOS>MOLECULE
PISM00765
   38    39     1     2     0
SMALL
GAST_HUCK


@<TRIPOS>ATOM
      1 C1          3.7100    5.0064   -2.9157 C.2       1 <1>         0.1169 
      2 C2          4.0169    5.7390   -4.1585 C.2       1 <1>        -0.0108 
      3 C3          3.0602    5.8973   -5.0820 C.2       1 <1>        -0.0663 
      4 C4          1.5831    4.0864   -4.0100 C.3       1 <1>         0.0283 
      5 C5          2.5052    4.1617   -2.8166 C.2       1 <1>         0.0348 
      6 O6          4.4685    5.0938   -1.9637 O.2       1 <1>        -0.4028 
      7 C7          2.2377    3.4638   -1.7041 C.2       1 <1>         0.0792 
      8 O8          1.1400    2.6943   -1.6552 O.3       1 <1>        -0.2712 
      9 C9          0.9948    1.9698   -0.4237 C.3       1 <1>         0.2386 
     10 O10         2.1307    1.1037   -0.2220 O.3       1 <1>        -0.2305 
     11 C11         1.6506   -0.1300   -0.3163 C.2       1 <1>         0.2495 
     12 C12         0.2126   -0.2290   -0.5365 C.2       1 <1>         0.0293 
     13 C13        -0.1823    1.0414   -0.5916 C.2       1 <1>        -0.0009 
     14 C14        -0.6186   -1.4744   -0.6800 C.3       1 <1>        -0.0323 
     15 O15         2.3673   -1.1107   -0.2151 O.2       1 <1>        -0.3691 
     16 C16         1.6626    5.3642   -4.8914 C.3       1 <1>        -0.0062 
     17 C17         1.9096    2.8187   -4.7810 C.2       1 <1>        -0.0662 
     18 C18         1.0275    1.8139   -4.8871 C.2       1 <1>        -0.1279 
     19 C19         3.2783    2.7312   -5.4230 C.3       1 <1>        -0.0288 
     20 H1          3.2804    6.4438   -6.0005 H         1 <1>         0.0641 
     21 H2          0.5408    4.0378   -3.6500 H         1 <1>         0.0609 
     22 H3          2.9326    3.5367   -0.8634 H         1 <1>         0.1080 
     23 C23         5.4009    6.3010   -4.3828 C.3       1 <1>        -0.0356 
     24 H4          0.8491    2.6369    0.4427 H         1 <1>         0.1211 
     25 H5         -1.2086    1.3715   -0.7467 H         1 <1>         0.0706 
     26 H6         -0.9993   -1.7752    0.3072 H         1 <1>         0.0347 
     27 H7         -0.0039   -2.2893   -1.0910 H         1 <1>         0.0347 
     28 H8         -1.4681   -1.2941   -1.3558 H         1 <1>         0.0347 
     29 H9          1.0951    6.1827   -4.4184 H         1 <1>         0.0481 
     30 H10         1.1976    5.1501   -5.8678 H         1 <1>         0.0481 
     31 H11         0.0411    1.8597   -4.4265 H         1 <1>         0.0077 
     32 H12         1.2601    0.9041   -5.4395 H         1 <1>         0.0077 
     33 H13         3.3760    3.4904   -6.2117 H         1 <1>         0.0424 
     34 H14         3.4553    1.7481   -5.8846 H         1 <1>         0.0424 
     35 H15         4.0661    2.8895   -4.6725 H         1 <1>         0.0424 
     36 H16         6.1423    5.7905   -3.7498 H         1 <1>         0.0348 
     37 H17         5.4004    7.3721   -4.1318 H         1 <1>         0.0348 
     38 H18         5.7106    6.1791   -5.4320 H         1 <1>         0.0348 
@<TRIPOS>BOND
     1    2    1 1    
     2    3    2 2    
     3    4    5 1    
     4   16    4 1    
     5    5    1 1    
     6    1    6 2    
     7    5    7 2    
     8    7    8 1    
     9    8    9 1    
    10    9   10 1    
    11   10   11 1    
    12   12   11 1    
    13   13   12 2    
    14    9   13 1    
    15   12   14 1    
    16   11   15 2    
    17   16    3 1    
    18    4   17 1    
    19   17   18 2    
    20   17   19 1    
    21    3   20 1    
    22    4   21 1    
    23    7   22 1    
    24    9   24 1    
    25    2   23 1    
    26   13   25 1    
    27   14   26 1    
    28   14   27 1    
    29   14   28 1    
    30   16   29 1    
    31   16   30 1    
    32   18   31 1    
    33   18   32 1    
    34   19   33 1    
    35   19   34 1    
    36   19   35 1    
    37   23   36 1    
    38   23   37 1    
    39   23   38 1    
@<TRIPOS>SUBSTRUCTURE
     1 ****       16 TEMP              0 ****  ****    0 ROOT 
@<TRIPOS>NORMAL
@<TRIPOS>FF_PBC
FORCE_FIELD_SETUP_FEATURE Force Field Setup information
v1.0  0 0.000000 0.000000 0.000000 0.000000 0.000000 0.000000 NONE 0 0 0 0 1 0 0 0 0 0 0 0 0
@<TRIPOS>RENDERING_ATTRS
ANTIALIASED_LINES 
1,2,3,4,5,6,7,8,9,10,11,12,13,14,15,16
