#	Name:			PISM00838
#	Creating user name:	baoopengkun
#	Creation time:		Thu Dec 13 14:40:19 2018

#	Modifying user name:	baoopengkun
#	Modification time:	Thu Dec 13 14:45:10 2018

@<TRIPOS>MOLECULE
PISM00838
   24    25     1     1     0
SMALL
GAST_HUCK


@<TRIPOS>ATOM
      1 C1         -6.5494   21.2199   -7.8436 C.ar      1 <1>        -0.0344 
      2 C2         -6.1123   22.3853   -7.2068 C.ar      1 <1>        -0.0369 
      3 C3         -6.6081   22.7181   -5.9434 C.ar      1 <1>         0.1203 
      4 C4         -7.5415   21.8883   -5.3165 C.ar      1 <1>        -0.0369 
      5 C5         -7.9780   20.7223   -5.9528 C.ar      1 <1>        -0.0344 
      6 C6         -7.4775   20.3860   -7.2136 C.ar      1 <1>         0.0939 
      7 F7         -6.1914   23.8263   -5.3366 F         1 <1>        -0.1929 
      8 O8         -7.9048   19.2193   -7.8426 O.3       1 <1>        -0.2736 
      9 C9         -7.0469   18.1019   -7.5799 C.3       1 <1>         0.2349 
     10 C10        -7.5296   16.9410   -8.4135 C.2       1 <1>        -0.0021 
     11 C11        -6.6041   16.5900   -9.3044 C.2       1 <1>         0.0292 
     12 C12        -5.5099   17.5181   -9.0440 C.2       1 <1>         0.2494 
     13 O13        -5.7131   18.3777   -8.0540 O.3       1 <1>        -0.2315 
     14 C14        -6.6649   15.5057  -10.3452 C.3       1 <1>        -0.0323 
     15 O15        -4.4730   17.5050   -9.6846 O.2       1 <1>        -0.3691 
     16 H1         -6.1707   20.9585   -8.8265 H         1 <1>         0.0533 
     17 H2         -5.3887   23.0345   -7.6888 H         1 <1>         0.0577 
     18 H3         -7.9239   22.1540   -4.3365 H         1 <1>         0.0577 
     19 H4         -8.7048   20.0759   -5.4721 H         1 <1>         0.0533 
     20 H5         -7.0297   17.8405   -6.5087 H         1 <1>         0.1197 
     21 H6         -8.5042   16.4679   -8.3010 H         1 <1>         0.0705 
     22 H7         -6.1565   15.8429  -11.2610 H         1 <1>         0.0347 
     23 H8         -7.7087   15.2569  -10.5889 H         1 <1>         0.0347 
     24 H9         -6.1588   14.6063   -9.9646 H         1 <1>         0.0347 
@<TRIPOS>BOND
     1    2    1 ar   
     2    2    3 ar   
     3    3    4 ar   
     4    4    5 ar   
     5    5    6 ar   
     6    1    6 ar   
     7    3    7 1    
     8    6    8 1    
     9    8    9 1    
    10    9   10 1    
    11   10   11 2    
    12   11   12 1    
    13   12   13 1    
    14    9   13 1    
    15   11   14 1    
    16   12   15 2    
    17    1   16 1    
    18    2   17 1    
    19    4   18 1    
    20    5   19 1    
    21    9   20 1    
    22   10   21 1    
    23   14   22 1    
    24   14   23 1    
    25   14   24 1    
@<TRIPOS>SUBSTRUCTURE
     1 ****        2 TEMP              0 ****  ****    0 ROOT 
@<TRIPOS>NORMAL
@<TRIPOS>FF_PBC
FORCE_FIELD_SETUP_FEATURE Force Field Setup information
v1.0  0 0.000000 0.000000 0.000000 0.000000 0.000000 0.000000 NONE 0 0 0 0 1 0 0 0 0 0 0 0 0
