#	Name:			PISM00584.3
#	Creating user name:	baoopengkun
#	Creation time:		Mon Dec 10 10:59:14 2018

#	Modifying user name:	baoopengkun
#	Modification time:	Mon Dec 10 10:59:46 2018

@<TRIPOS>MOLECULE
PISM00584.3
   42    44     1     2     0
SMALL
GAST_HUCK


@<TRIPOS>ATOM
      1 C1         -9.0298   10.3930   -5.3208 C.ar      1 <1>        -0.0103 
      2 C2         -9.0796   11.7867   -5.4170 C.ar      1 <1>        -0.0135 
      3 C3         -8.1834   12.5763   -4.6898 C.ar      1 <1>         0.0314 
      4 C4         -7.2494   11.9630   -3.8495 C.ar      1 <1>        -0.0135 
      5 C5         -7.1967   10.5695   -3.7565 C.ar      1 <1>        -0.0103 
      6 C6         -8.0858    9.7775   -4.4907 C.ar      1 <1>         0.0719 
      7 C7         -8.2267   14.1056   -4.8028 C.3       1 <1>         0.2089 
      8 O8         -8.6481   14.5552   -6.0969 O.3       1 <1>        -0.3715 
      9 C9         -7.5431   14.3347   -6.9770 C.3       1 <1>         0.0674 
     10 C10        -6.3407   14.6412   -6.0480 C.3       1 <1>         0.0755 
     11 O11        -6.9166   14.6820   -4.7322 O.3       1 <1>        -0.3685 
     12 C12        -9.1493   14.6596   -3.6984 C.3       1 <1>         0.1150 
     13 N13       -10.4464   14.0149   -3.8194 N.pl3     1 <1>        -0.1794 
     14 C14       -11.3632   14.2460   -4.7076 C.2       1 <1>         0.1272 
     15 N15       -12.3492   13.4953   -4.5100 N.2       1 <1>        -0.2870 
     16 C16       -12.1180   12.6495   -3.3711 C.2       1 <1>         0.0618 
     17 N17       -10.9477   13.0338   -3.0183 N.2       1 <1>        -0.1906 
     18 C18        -8.0009    8.2525   -4.3659 C.3       1 <1>         0.3942 
     19 F19        -7.9868    7.9082   -3.0504 F         1 <1>        -0.2083 
     20 F20        -6.8477    7.8286   -4.9477 F         1 <1>        -0.2083 
     21 F21        -9.0547    7.6400   -4.9698 F         1 <1>        -0.2083 
     22 C22        -5.2063   13.5874   -6.1539 C.3       1 <1>        -0.0255 
     23 C23        -4.0507   13.9051   -5.1674 C.3       1 <1>        -0.0535 
     24 C24        -2.9340   12.8319   -5.2457 C.3       1 <1>        -0.0652 
     25 H1         -9.7300    9.7955   -5.8962 H         1 <1>         0.0897 
     26 H2         -9.8200   12.2557   -6.0577 H         1 <1>         0.0896 
     27 H3         -6.5629   12.5698   -3.2671 H         1 <1>         0.0896 
     28 H4         -6.4607   10.1002   -3.1102 H         1 <1>         0.0897 
     29 H5         -7.5993   14.9887   -7.8610 H         1 <1>         0.0577 
     30 H6         -7.5472   13.2847   -7.3094 H         1 <1>         0.0577 
     31 H7         -5.9437   15.6494   -6.2518 H         1 <1>         0.0610 
     32 H8         -9.2409   15.7506   -3.8084 H         1 <1>         0.0618 
     33 H9         -8.7185   14.4362   -2.7111 H         1 <1>         0.0618 
     34 H10       -11.2947   14.9770   -5.5131 H         1 <1>         0.1361 
     35 H11       -12.7605   11.8901   -2.9278 H         1 <1>         0.0863 
     36 H12        -4.8200   13.5832   -7.1861 H         1 <1>         0.0290 
     37 H13        -5.6056   12.5859   -5.9328 H         1 <1>         0.0290 
     38 H14        -4.4425   13.9421   -4.1375 H         1 <1>         0.0263 
     39 H15        -3.6222   14.8926   -5.4073 H         1 <1>         0.0263 
     40 H16        -2.1209   13.0791   -4.5449 H         1 <1>         0.0230 
     41 H17        -2.5169   12.7850   -6.2638 H         1 <1>         0.0230 
     42 H18        -3.3346   11.8407   -4.9811 H         1 <1>         0.0230 
@<TRIPOS>BOND
     1    2    1 ar   
     2    2    3 ar   
     3    3    4 ar   
     4    4    5 ar   
     5    5    6 ar   
     6    1    6 ar   
     7    3    7 1    
     8    7    8 1    
     9    8    9 1    
    10    9   10 1    
    11   10   11 1    
    12    7   11 1    
    13    7   12 1    
    14   12   13 1    
    15   13   14 1    
    16   14   15 2    
    17   15   16 1    
    18   16   17 2    
    19   13   17 1    
    20    6   18 1    
    21   18   19 1    
    22   18   20 1    
    23   18   21 1    
    24   10   22 1    
    25   22   23 1    
    26   23   24 1    
    27    1   25 1    
    28    2   26 1    
    29    4   27 1    
    30    5   28 1    
    31    9   29 1    
    32    9   30 1    
    33   10   31 1    
    34   12   32 1    
    35   12   33 1    
    36   14   34 1    
    37   16   35 1    
    38   22   36 1    
    39   22   37 1    
    40   23   38 1    
    41   23   39 1    
    42   24   40 1    
    43   24   41 1    
    44   24   42 1    
@<TRIPOS>SUBSTRUCTURE
     1 ****        2 TEMP              0 ****  ****    0 ROOT 
@<TRIPOS>NORMAL
@<TRIPOS>FF_PBC
FORCE_FIELD_SETUP_FEATURE Force Field Setup information
v1.0  0 0.000000 0.000000 0.000000 0.000000 0.000000 0.000000 NONE 0 0 0 0 1 0 0 0 0 0 0 0 0
@<TRIPOS>RENDERING_ATTRS
ANTIALIASED_LINES 
*
