#	Name:			PISM00417
#	Creating user name:	malab
#	Creation time:		Tue Apr 09 23:41:05 2019

#	Modifying user name:	malab
#	Modification time:	Tue Apr 09 23:47:31 2019

@<TRIPOS>MOLECULE
PISM00417
   39    39     1     2     0
SMALL
USER_CHARGES


@<TRIPOS>ATOM
      1 C1         -8.5993   -3.9648   -4.9076 C.3       1 <1>         0.0000 
      2 C2         -8.0951   -5.4336   -4.8340 C.3       1 <1>         0.0000 
      3 C3         -6.6142   -5.4856   -5.0819 C.2       1 <1>         0.0000 
      4 C4         -5.7557   -4.3102   -4.8514 C.2       1 <1>         0.0000 
      5 C5         -6.2503   -3.1720   -4.3360 C.2       1 <1>         0.0000 
      6 C6         -7.7270   -3.0614   -3.9761 C.3       1 <1>         0.0000 
      7 O7         -6.1124   -6.5220   -5.4872 O.2       1 <1>         0.0000 
      8 C8         -5.3933   -1.9515   -4.0647 C.3       1 <1>         0.0000 
      9 C9        -10.0959   -3.9246   -4.4720 C.3       1 <1>         0.0000 
     10 C10        -8.5051   -3.4531   -6.3798 C.3       1 <1>         0.0000 
     11 Cl11       -4.0606   -4.4635   -5.2789 Cl        1 <1>         0.0000 
     12 H1         -8.6156   -6.0415   -5.5911 H         1 <1>         0.0000 
     13 H2         -8.2929   -5.8854   -3.8500 H         1 <1>         0.0000 
     14 O14        -8.2252   -1.7183   -4.1513 O.3       1 <1>         0.0000 
     15 C15        -7.8476   -3.5058   -2.5311 C.2       1 <1>         0.0000 
     16 H3         -4.3161   -2.1178   -4.1954 H         1 <1>         0.0000 
     17 H4         -5.5411   -1.6242   -3.0244 H         1 <1>         0.0000 
     18 H5         -5.6858   -1.1385   -4.7459 H         1 <1>         0.0000 
     19 C19        -8.6800   -2.9510   -1.6397 C.2       1 <1>         0.0000 
     20 C20        -8.7800   -3.4264   -0.2440 C.2       1 <1>         0.0000 
     21 C21        -8.8000   -2.5797    0.7967 C.2       1 <1>         0.0000 
     22 C22        -8.6794   -1.1081    0.7370 C.2       1 <1>         0.0000 
     23 C23        -8.8766   -4.9150    0.0017 C.3       1 <1>         0.0000 
     24 O24        -8.9392   -0.4572    1.7383 O.2       1 <1>         0.0000 
     25 O25        -8.2788   -0.5085   -0.3897 O.3       1 <1>         0.0000 
     26 H6        -10.7100   -4.5276   -5.1582 H         1 <1>         0.0000 
     27 H7        -10.4810   -2.8937   -4.4850 H         1 <1>         0.0000 
     28 H8        -10.2319   -4.3309   -3.4588 H         1 <1>         0.0000 
     29 H9         -7.4690   -3.4529   -6.7480 H         1 <1>         0.0000 
     30 H10        -8.8946   -2.4277   -6.4655 H         1 <1>         0.0000 
     31 H11        -9.0988   -4.0925   -7.0506 H         1 <1>         0.0000 
     32 H12        -7.8371   -1.0689   -3.5759 H         1 <1>         0.0000 
     33 H13        -7.2179   -4.3319   -2.1981 H         1 <1>         0.0000 
     34 H14        -9.3283   -2.1253   -1.9295 H         1 <1>         0.0000 
     35 H15        -8.9078   -2.9968    1.7991 H         1 <1>         0.0000 
     36 H16        -9.1678   -5.4499   -0.9153 H         1 <1>         0.0000 
     37 H17        -9.6296   -5.1378    0.7732 H         1 <1>         0.0000 
     38 H18        -7.8997   -5.2936    0.3372 H         1 <1>         0.0000 
     39 H19        -8.2280    0.4393   -0.3221 H         1 <1>         0.0000 
@<TRIPOS>BOND
     1    2    1 1    
     2    2    3 1    
     3    3    4 1    
     4    4    5 2    
     5    5    6 1    
     6    1    6 1    
     7    3    7 2    
     8    5    8 1    
     9    1    9 1    
    10    1   10 1    
    11    4   11 1    
    12    2   12 1    
    13    2   13 1    
    14    6   14 1    
    15    6   15 1    
    16    8   16 1    
    17    8   17 1    
    18    8   18 1    
    19   15   19 2    
    20   19   20 1    
    21   20   21 2    
    22   21   22 1    
    23   20   23 1    
    24   22   24 2    
    25   22   25 1    
    26    9   26 1    
    27    9   27 1    
    28    9   28 1    
    29   10   29 1    
    30   10   30 1    
    31   10   31 1    
    32   14   32 1    
    33   15   33 1    
    34   19   34 1    
    35   21   35 1    
    36   23   36 1    
    37   23   37 1    
    38   23   38 1    
    39   25   39 1    
@<TRIPOS>SUBSTRUCTURE
     1 ****        2 TEMP              0 ****  ****    0 ROOT 
@<TRIPOS>NORMAL
@<TRIPOS>FF_PBC
FORCE_FIELD_SETUP_FEATURE Force Field Setup information
v1.0  0 0.000000 0.000000 0.000000 0.000000 0.000000 0.000000 NONE 0 0 0 0 0 0 0 0 0 0 0 0 0
@<TRIPOS>RENDERING_ATTRS
ANTIALIASED_LINES 
*
