#	Name:			PISM00590
#	Creating user name:	baoopengkun
#	Creation time:		Mon Dec 10 12:07:59 2018

#	Modifying user name:	baoopengkun
#	Modification time:	Mon Dec 10 12:08:12 2018

@<TRIPOS>MOLECULE
PISM00590
   39    41     1     2     0
SMALL
GAST_HUCK


@<TRIPOS>ATOM
      1 C1         -2.8376    9.0688   -4.3556 C.ar      1 <1>        -0.0347 
      2 C2         -4.2176    9.2905   -4.3272 C.ar      1 <1>        -0.0322 
      3 C3         -5.0747    8.4583   -5.0531 C.ar      1 <1>        -0.0340 
      4 C4         -4.5512    7.3974   -5.7977 C.ar      1 <1>        -0.0322 
      5 C5         -3.1711    7.1775   -5.8244 C.ar      1 <1>        -0.0347 
      6 C6         -2.3082    8.0240   -5.1205 C.ar      1 <1>         0.0080 
      7 C7         -0.7903    7.8001   -5.1906 C.3       1 <1>         0.1932 
      8 C8         -0.3770    6.7690   -4.1112 C.3       1 <1>         0.1080 
      9 N9          1.0242    6.3691   -4.1165 N.pl3     1 <1>        -0.1812 
     10 N10         1.5657    5.3517   -3.3887 N.2       1 <1>        -0.1908 
     11 C11         2.8213    5.1975   -3.5900 C.2       1 <1>         0.0618 
     12 N12         3.0676    6.2363   -4.5513 N.2       1 <1>        -0.2870 
     13 C13         2.0086    6.8596   -4.8075 C.2       1 <1>         0.1270 
     14 O14        -0.0634    9.0295   -5.0685 O.3       1 <1>        -0.3805 
     15 C15        -0.2379    9.7256   -6.3064 C.3       1 <1>         0.0650 
     16 C16        -0.2517    8.5561   -7.3232 C.3       1 <1>         0.0731 
     17 O17        -0.3984    7.3836   -6.5057 O.3       1 <1>        -0.3774 
     18 H18        -6.1462    8.6351   -5.0379 H         1 <1>         0.0856 
     19 C19        -1.3817    8.6744   -8.3802 C.3       1 <1>        -0.0257 
     20 C20        -1.3927    7.4432   -9.3257 C.3       1 <1>        -0.0535 
     21 C21        -2.5373    7.5425  -10.3671 C.3       1 <1>        -0.0652 
     22 H22        -2.1766    9.7109   -3.7815 H         1 <1>         0.0852 
     23 H23        -4.6237   10.1096   -3.7409 H         1 <1>         0.0698 
     24 H3         -5.2157    6.7443   -6.3555 H         1 <1>         0.0698 
     25 H4         -2.7687    6.3468   -6.3958 H         1 <1>         0.0852 
     26 H5         -0.9705    5.8536   -4.2525 H         1 <1>         0.0597 
     27 H6         -0.6027    7.1886   -3.1198 H         1 <1>         0.0597 
     28 H7          3.5106    4.4768   -3.1528 H         1 <1>         0.0863 
     29 H8          1.9686    7.6852   -5.5149 H         1 <1>         0.1361 
     30 H9          0.5737   10.4503   -6.4740 H         1 <1>         0.0575 
     31 H10        -1.1981   10.2647   -6.2919 H         1 <1>         0.0575 
     32 H11         0.7259    8.4720   -7.8260 H         1 <1>         0.0608 
     33 H12        -1.2230    9.5922   -8.9693 H         1 <1>         0.0290 
     34 H13        -2.3578    8.7538   -7.8780 H         1 <1>         0.0290 
     35 H14        -1.5252    6.5230   -8.7330 H         1 <1>         0.0263 
     36 H15        -0.4270    7.3747   -9.8536 H         1 <1>         0.0263 
     37 H16        -2.5257    6.6610  -11.0276 H         1 <1>         0.0230 
     38 H17        -2.4162    8.4455  -10.9856 H         1 <1>         0.0230 
     39 H18        -3.5144    7.5878   -9.8612 H         1 <1>         0.0230 
@<TRIPOS>BOND
     1    2    1 ar   
     2    2    3 ar   
     3    3    4 ar   
     4    4    5 ar   
     5    5    6 ar   
     6    1    6 ar   
     7    6    7 1    
     8    7    8 1    
     9    8    9 1    
    10    9   10 1    
    11   10   11 2    
    12   11   12 1    
    13   12   13 2    
    14    9   13 1    
    15    7   14 1    
    16   14   15 1    
    17   15   16 1    
    18   16   17 1    
    19    7   17 1    
    20    3   18 1    
    21   16   19 1    
    22   19   20 1    
    23   20   21 1    
    24    1   22 1    
    25    2   23 1    
    26    4   24 1    
    27    5   25 1    
    28    8   26 1    
    29    8   27 1    
    30   11   28 1    
    31   13   29 1    
    32   15   30 1    
    33   15   31 1    
    34   16   32 1    
    35   19   33 1    
    36   19   34 1    
    37   20   35 1    
    38   20   36 1    
    39   21   37 1    
    40   21   38 1    
    41   21   39 1    
@<TRIPOS>SUBSTRUCTURE
     1 ****        2 TEMP              0 ****  ****    0 ROOT 
@<TRIPOS>NORMAL
@<TRIPOS>FF_PBC
FORCE_FIELD_SETUP_FEATURE Force Field Setup information
v1.0  0 0.000000 0.000000 0.000000 0.000000 0.000000 0.000000 NONE 0 0 0 0 1 0 0 0 0 0 0 0 0
@<TRIPOS>RENDERING_ATTRS
ANTIALIASED_LINES 
*
