#	Name:			PISM00075
#	Creating user name:	baoopengkun
#	Creation time:		Thu Dec 27 12:07:44 2018

#	Modifying user name:	baoopengkun
#	Modification time:	Thu Dec 27 12:09:24 2018

@<TRIPOS>MOLECULE
PISM00075
   43    46     1     1     0
SMALL
GAST_HUCK


@<TRIPOS>ATOM
      1 C1        -13.6314   14.4511   -4.3999 C.ar      1 <1>        -0.0346 
      2 C2        -13.2404   15.6110   -3.7250 C.ar      1 <1>        -0.0608 
      3 C3        -13.5962   16.8735   -4.2137 C.ar      1 <1>         0.0353 
      4 C4        -14.3884   16.9529   -5.3657 C.ar      1 <1>        -0.0210 
      5 C5        -14.7634   15.7983   -6.0576 C.ar      1 <1>         0.1259 
      6 C6        -14.3842   14.5389   -5.5727 C.ar      1 <1>         0.1258 
      7 O7        -14.7430   13.3675   -6.2495 O.3       1 <1>        -0.3153 
      8 C8        -15.8243   13.5226   -7.1818 C.3       1 <1>         0.0965 
      9 C9        -15.5220   14.7532   -8.0659 C.3       1 <1>         0.0954 
     10 O10       -15.5257   15.9181   -7.2255 O.3       1 <1>        -0.3179 
     11 C11       -13.1219   18.1124   -3.4783 C.2       1 <1>         0.2186 
     12 O12       -12.9796   18.0026   -2.2714 O.2       1 <1>        -0.3721 
     13 N13       -12.8627   19.2301   -4.1066 N.pl3     1 <1>        -0.2434 
     14 C14       -12.4521   20.3471   -3.4548 C.ar      1 <1>         0.0500 
     15 C15       -13.0843   20.7781   -2.2824 C.ar      1 <1>        -0.0521 
     16 C16       -12.6192   21.9093   -1.6067 C.ar      1 <1>        -0.0821 
     17 C17       -11.5310   22.6262   -2.1106 C.ar      1 <1>        -0.0522 
     18 C18       -10.9040   22.2219   -3.2939 C.ar      1 <1>         0.0498 
     19 C19       -11.3875   21.0951   -3.9707 C.ar      1 <1>        -0.0196 
     20 N20        -9.8515   22.9365   -3.7656 N.pl3     1 <1>        -0.2433 
     21 C21        -8.7589   22.3648   -4.2036 C.2       1 <1>         0.2315 
     22 O22        -8.6210   21.1523   -4.1999 O.2       1 <1>        -0.3737 
     23 C23        -7.6182   23.1580   -4.7196 C.2       1 <1>         0.1053 
     24 S24        -7.6305   24.9421   -4.8247 S.3       1 <1>        -0.0252 
     25 C25        -5.9844   24.8840   -5.4972 C.2       1 <1>         0.0013 
     26 C26        -5.5085   23.6427   -5.6156 C.2       1 <1>        -0.0660 
     27 C27        -6.4702   22.6307   -5.1579 C.2       1 <1>        -0.0542 
     28 H1        -13.3505   13.4755   -4.0169 H         1 <1>         0.0525 
     29 H2        -12.6522   15.5256   -2.8162 H         1 <1>         0.0552 
     30 H3        -14.7365   17.9092   -5.7380 H         1 <1>         0.0559 
     31 H4        -16.7706   13.6787   -6.6386 H         1 <1>         0.0638 
     32 H5        -15.9070   12.6056   -7.7860 H         1 <1>         0.0638 
     33 H6        -16.2834   14.8786   -8.8514 H         1 <1>         0.0636 
     34 H7        -14.5348   14.6350   -8.5416 H         1 <1>         0.0636 
     35 H8        -12.9262   19.2614   -5.1322 H         1 <1>         0.2095 
     36 H9        -13.9456   20.2450   -1.8934 H         1 <1>         0.0431 
     37 H10       -13.1042   22.2311   -0.6900 H         1 <1>         0.0557 
     38 H11       -11.1707   23.4996   -1.5767 H         1 <1>         0.0431 
     39 H12       -10.9405   20.7948   -4.9118 H         1 <1>         0.0433 
     40 H13        -9.9171   23.9630   -3.7493 H         1 <1>         0.2090 
     41 H14        -5.4303   25.7784   -5.7805 H         1 <1>         0.0804 
     42 H15        -4.5202   23.4007   -6.0066 H         1 <1>         0.0438 
     43 H16        -6.2558   21.5622   -5.1795 H         1 <1>         0.0519 
@<TRIPOS>BOND
     1    2    1 ar   
     2    2    3 ar   
     3    3    4 ar   
     4    4    5 ar   
     5    5    6 ar   
     6    1    6 ar   
     7    6    7 1    
     8    7    8 1    
     9    8    9 1    
    10    9   10 1    
    11    5   10 1    
    12    3   11 1    
    13   11   12 2    
    14   11   13 1    
    15   13   14 1    
    16   14   15 ar   
    17   15   16 ar   
    18   16   17 ar   
    19   17   18 ar   
    20   18   19 ar   
    21   14   19 ar   
    22   18   20 1    
    23   20   21 1    
    24   21   22 2    
    25   21   23 1    
    26   23   24 1    
    27   24   25 1    
    28   25   26 2    
    29   26   27 1    
    30   23   27 2    
    31    1   28 1    
    32    2   29 1    
    33    4   30 1    
    34    8   31 1    
    35    8   32 1    
    36    9   33 1    
    37    9   34 1    
    38   13   35 1    
    39   15   36 1    
    40   16   37 1    
    41   17   38 1    
    42   19   39 1    
    43   20   40 1    
    44   25   41 1    
    45   26   42 1    
    46   27   43 1    
@<TRIPOS>SUBSTRUCTURE
     1 ****        2 TEMP              0 ****  ****    0 ROOT 
@<TRIPOS>NORMAL
@<TRIPOS>FF_PBC
FORCE_FIELD_SETUP_FEATURE Force Field Setup information
v1.0  0 0.000000 0.000000 0.000000 0.000000 0.000000 0.000000 NONE 0 0 0 0 1 0 0 0 0 0 0 0 0
