#	Name:			PISM00225
#	Creating user name:	14062
#	Creation time:		Fri Apr 05 23:23:47 2019

#	Modifying user name:	14062
#	Modification time:	Fri Apr 05 23:26:23 2019

@<TRIPOS>MOLECULE
PISM00225
   33    34     1     2     0
SMALL
GAST_HUCK


@<TRIPOS>ATOM
      1 Cl1         5.4684   -0.1167    1.0230 Cl        1 BENZYL     -0.0810 
      2 O2          0.3468    1.5702    3.5556 O.3       1 BENZYL     -0.2956 
      3 C2          1.5584    1.1326    3.0043 C.ar      1 BENZYL      0.1091 
      4 C3          1.7647   -0.2027    2.6325 C.ar      1 BENZYL     -0.0315 
      5 C4          2.9654   -0.5837    2.0212 C.ar      1 BENZYL     -0.0564 
      6 C5          3.9750    0.3572    1.8030 C.ar      1 BENZYL      0.0291 
      7 C6          3.7898    1.6804    2.2095 C.ar      1 BENZYL     -0.0426 
      8 C7          2.5821    2.0653    2.7990 C.ar      1 BENZYL      0.0687 
      9 C9         -0.1490    2.8922    6.3860 C.3       1 BENZYL      0.0379 
     10 H1          1.0013   -0.9551    2.7980 H         1 BENZYL      0.0543 
     11 C11        -0.4394    0.7582    4.4518 C.3       1 BENZYL      0.1648 
     12 C12        -1.6064    1.5854    4.9447 C.2       1 BENZYL      0.2339 
     13 N13        -1.4488    2.5590    5.8051 N.pl3     1 BENZYL     -0.2265 
     14 C14        -2.5308    3.2893    6.1677 C.ar      1 BENZYL      0.0641 
     15 C15        -2.9221    4.3885    5.3970 C.ar      1 BENZYL     -0.0398 
     16 C16        -4.0392    5.1414    5.7708 C.ar      1 BENZYL     -0.0722 
     17 C17        -4.7637    4.7929    6.9149 C.ar      1 BENZYL     -0.0740 
     18 C18        -4.3740    3.6923    7.6846 C.ar      1 BENZYL     -0.0722 
     19 C19        -3.2536    2.9435    7.3125 C.ar      1 BENZYL     -0.0398 
     20 H2          3.1138   -1.6125    1.7092 H         1 BENZYL      0.0597 
     21 O21        -2.7123    1.3116    4.5029 O.2       1 BENZYL     -0.3763 
     22 Cl22        2.3519    3.7366    3.2807 Cl        1 BENZYL     -0.0787 
     23 H3          4.5824    2.4080    2.0687 H         1 BENZYL      0.0601 
     24 H4          0.1767    2.0867    7.0579 H         1 BENZYL      0.0522 
     25 H5         -0.2109    3.8164    6.9814 H         1 BENZYL      0.0522 
     26 H6          0.6132    3.0470    5.6076 H         1 BENZYL      0.0522 
     27 H7          0.1604    0.4055    5.3013 H         1 BENZYL      0.0868 
     28 H8         -0.8541   -0.1200    3.9341 H         1 BENZYL      0.0868 
     29 H9         -2.3566    4.6535    4.5115 H         1 BENZYL      0.0529 
     30 H10        -4.3444    5.9935    5.1740 H         1 BENZYL      0.0586 
     31 H11        -5.6316    5.3758    7.2059 H         1 BENZYL      0.0514 
     32 H12        -4.9406    3.4175    8.5701 H         1 BENZYL      0.0586 
     33 H13        -2.9408    2.0904    7.9072 H         1 BENZYL      0.0529 
@<TRIPOS>BOND
     1    2    3 1    
     2    3    4 ar   
     3    3    8 ar   
     4    8    7 ar   
     5    7    6 ar   
     6    6    5 ar   
     7    5    4 ar   
     8    6    1 1    
     9   13    9 1    
    10    4   10 1    
    11    2   11 1    
    12   11   12 1    
    13   12   13 1    
    14   13   14 1    
    15   14   15 ar   
    16   15   16 ar   
    17   16   17 ar   
    18   17   18 ar   
    19   18   19 ar   
    20   14   19 ar   
    21    5   20 1    
    22   12   21 2    
    23    8   22 1    
    24    7   23 1    
    25    9   24 1    
    26    9   25 1    
    27    9   26 1    
    28   11   27 1    
    29   11   28 1    
    30   15   29 1    
    31   16   30 1    
    32   17   31 1    
    33   18   32 1    
    34   19   33 1    
@<TRIPOS>SUBSTRUCTURE
     1 BENZYL      2 PERM              0 ****  ****    0 ROOT 
@<TRIPOS>NORMAL
@<TRIPOS>FF_PBC
FORCE_FIELD_SETUP_FEATURE Force Field Setup information
v1.0  0 0.000000 0.000000 0.000000 0.000000 0.000000 0.000000 NONE 0 0 0 0 1 0 0 0 0 0 0 0 0
@<TRIPOS>RENDERING_ATTRS
ANTIALIASED_LINES 
1,2,3,4,5,6,7,8,9,11,12,13,14,15,16,17,18,19,21,22
