#	Name:			PISM01033.2
#	Creating user name:	malab
#	Creation time:		Tue Jul 02 17:12:55 2019

#	Modifying user name:	malab
#	Modification time:	Tue Jul 02 17:18:27 2019

@<TRIPOS>MOLECULE
PISM01033.2
   40    41     1     1     0
SMALL
GAST_HUCK


@<TRIPOS>ATOM
      1 N1         -8.4853    1.5597   -4.9089 N.pl3     1 <1>        -0.1706 
      2 C2         -8.8723    0.4597   -4.3356 C.2       1 <1>         0.1284 
      3 N3        -10.0411    0.1726   -4.6904 N.2       1 <1>        -0.2870 
      4 C4        -10.5431    1.1523   -5.6124 C.2       1 <1>         0.0618 
      5 N5         -9.5382    1.9425   -5.6859 N.2       1 <1>        -0.1897 
      6 C6         -7.1926    2.2287   -4.7963 C.3       1 <1>         0.1222 
      7 C7         -6.8273    2.6743   -3.3372 C.3       1 <1>         0.0945 
      8 O8         -6.7906    1.4991   -2.4974 O.3       1 <1>        -0.3879 
      9 C9         -7.7099    3.7627   -2.6205 C.3       1 <1>        -0.0085 
     10 C10        -7.4102    3.7100   -1.0870 C.3       1 <1>        -0.0576 
     11 C11        -7.3695    5.2145   -3.0857 C.3       1 <1>        -0.0576 
     12 C12        -9.2305    3.5043   -2.8169 C.3       1 <1>        -0.0576 
     13 C13        -7.0647    3.3307   -5.8847 C.3       1 <1>         0.0165 
     14 C14        -6.9109    2.7033   -7.2809 C.ar      1 <1>        -0.0396 
     15 C15        -5.6798    2.1561   -7.6620 C.ar      1 <1>        -0.0596 
     16 C16        -5.5261    1.5605   -8.9173 C.ar      1 <1>        -0.0546 
     17 C17        -6.6026    1.5155   -9.8064 C.ar      1 <1>         0.0330 
     18 C18        -7.8294    2.0737   -9.4392 C.ar      1 <1>        -0.0546 
     19 C19        -7.9807    2.6703   -8.1841 C.ar      1 <1>        -0.0596 
     20 Cl20       -6.4148    0.7619  -11.3767 Cl        1 <1>        -0.0771 
     21 H1         -8.2993   -0.1559   -3.6452 H         1 <1>         0.1361 
     22 H2        -11.5087    1.2088   -6.1124 H         1 <1>         0.0864 
     23 H3         -6.4485    1.4596   -5.0621 H         1 <1>         0.0729 
     24 H4         -5.7985    3.0771   -3.3535 H         1 <1>         0.0633 
     25 H5         -6.1297    0.8553   -2.7356 H         1 <1>         0.2099 
     26 H6         -6.3313    3.8281   -0.9019 H         1 <1>         0.0236 
     27 H7         -7.7338    2.7548   -0.6460 H         1 <1>         0.0236 
     28 H8         -7.9380    4.5104   -0.5459 H         1 <1>         0.0236 
     29 H9         -7.6218    5.3951   -4.1353 H         1 <1>         0.0236 
     30 H10        -6.2987    5.4293   -2.9484 H         1 <1>         0.0236 
     31 H11        -7.9375    5.9504   -2.4959 H         1 <1>         0.0236 
     32 H12        -9.5259    3.6742   -3.8607 H         1 <1>         0.0236 
     33 H13        -9.8244    4.1890   -2.1923 H         1 <1>         0.0236 
     34 H14        -9.4872    2.4728   -2.5334 H         1 <1>         0.0236 
     35 H15        -6.1810    3.9603   -5.6970 H         1 <1>         0.0459 
     36 H16        -7.9564    3.9721   -5.8799 H         1 <1>         0.0459 
     37 H17        -4.8337    2.1906   -6.9829 H         1 <1>         0.0557 
     38 H18        -4.5714    1.1320   -9.2044 H         1 <1>         0.0606 
     39 H19        -8.6646    2.0429  -10.1314 H         1 <1>         0.0606 
     40 H20        -8.9383    3.1072   -7.9202 H         1 <1>         0.0557 
@<TRIPOS>BOND
     1    2    1 1    
     2    2    3 2    
     3    3    4 1    
     4    4    5 2    
     5    1    5 1    
     6    1    6 1    
     7    6    7 1    
     8    7    8 1    
     9    7    9 1    
    10    9   10 1    
    11    9   11 1    
    12    9   12 1    
    13    6   13 1    
    14   13   14 1    
    15   14   15 ar   
    16   15   16 ar   
    17   16   17 ar   
    18   17   18 ar   
    19   18   19 ar   
    20   14   19 ar   
    21   17   20 1    
    22    2   21 1    
    23    4   22 1    
    24    6   23 1    
    25    7   24 1    
    26    8   25 1    
    27   10   26 1    
    28   10   27 1    
    29   10   28 1    
    30   11   29 1    
    31   11   30 1    
    32   11   31 1    
    33   12   32 1    
    34   12   33 1    
    35   12   34 1    
    36   13   35 1    
    37   13   36 1    
    38   15   37 1    
    39   16   38 1    
    40   18   39 1    
    41   19   40 1    
@<TRIPOS>SUBSTRUCTURE
     1 ****        2 TEMP              0 ****  ****    0 ROOT 
@<TRIPOS>NORMAL
@<TRIPOS>FF_PBC
FORCE_FIELD_SETUP_FEATURE Force Field Setup information
v1.0  0 0.000000 0.000000 0.000000 0.000000 0.000000 0.000000 NONE 0 0 0 0 1 0 0 0 0 0 0 0 0
