#	Name:			PISM00937.1
#	Creating user name:	baoopengkun
#	Creation time:		Wed Dec 12 22:41:34 2018

#	Modifying user name:	baoopengkun
#	Modification time:	Wed Dec 12 23:03:32 2018

@<TRIPOS>MOLECULE
PISM00937.1
   21    21     1     1     0
SMALL
GAST_HUCK


@<TRIPOS>ATOM
      1 C1          3.9993   -5.9455    3.7935 C.3       1 <1>        -0.0422 
      2 C2          3.2710   -6.2766    5.0677 C.2       1 <1>         0.0177 
      3 C3          3.5196   -7.2439    5.9490 C.2       1 <1>        -0.0046 
      4 C4          2.5338   -7.2241    7.0923 C.3       1 <1>         0.1823 
      5 O5          1.6652   -6.1116    6.7938 O.3       1 <1>        -0.2525 
      6 C6          2.1073   -5.6092    5.6444 C.2       1 <1>         0.2302 
      7 C7          4.6113   -8.2829    5.9163 C.3       1 <1>        -0.0242 
      8 H1          3.9909   -6.8166    3.1216 H         1 <1>         0.0303 
      9 O9          1.5717   -4.6506    5.1150 O.2       1 <1>        -0.3822 
     10 C10         1.7648   -8.4624    7.1159 C.1       1 <1>        -0.0492 
     11 C11         1.1325   -9.4863    7.1338 C.1       1 <1>        -0.0998 
     12 C12         0.3663  -10.7259    7.1550 C.3       1 <1>        -0.0023 
     13 H2          5.0402   -5.6706    4.0199 H         1 <1>         0.0303 
     14 H3          3.5114   -5.1006    3.2848 H         1 <1>         0.0303 
     15 H4          3.0348   -7.0693    8.0601 H         1 <1>         0.0990 
     16 H5          4.1663   -9.2878    5.8633 H         1 <1>         0.0429 
     17 H6          5.2202   -8.2092    6.8296 H         1 <1>         0.0429 
     18 H7          5.2686   -8.1451    5.0451 H         1 <1>         0.0429 
     19 H8          0.1962  -11.0687    6.1237 H         1 <1>         0.0362 
     20 H9         -0.6014  -10.5496    7.6473 H         1 <1>         0.0362 
     21 H10         0.9257  -11.4938    7.7094 H         1 <1>         0.0362 
@<TRIPOS>BOND
     1    2    1 1    
     2    2    3 2    
     3    3    4 1    
     4    4    5 1    
     5    5    6 1    
     6    2    6 1    
     7    3    7 1    
     8    1    8 1    
     9    6    9 2    
    10    4   10 1    
    11   10   11 3    
    12   11   12 1    
    13    1   13 1    
    14    1   14 1    
    15    4   15 1    
    16    7   16 1    
    17    7   17 1    
    18    7   18 1    
    19   12   19 1    
    20   12   20 1    
    21   12   21 1    
@<TRIPOS>SUBSTRUCTURE
     1 ****        2 TEMP              0 ****  ****    0 ROOT 
@<TRIPOS>NORMAL
@<TRIPOS>FF_PBC
FORCE_FIELD_SETUP_FEATURE Force Field Setup information
v1.0  0 0.000000 0.000000 0.000000 0.000000 0.000000 0.000000 NONE 0 0 0 0 1 0 0 0 0 0 0 0 0
