#	Name:			PISM00704
#	Creating user name:	baoopengkun
#	Creation time:		Sun Jan 20 21:21:54 2019

#	Modifying user name:	baoopengkun
#	Modification time:	Sun Jan 20 21:25:39 2019

@<TRIPOS>MOLECULE
PISM00704
   42    44     1     1     0
SMALL
GAST_HUCK


@<TRIPOS>ATOM
      1 C1         -1.6563    8.3510    8.4498 C.3       1 <1>        -0.0288 
      2 C2         -0.2619    7.7378    8.6273 C.ar      1 <1>        -0.0412 
      3 C3          0.8180    8.5688    8.9448 C.ar      1 <1>        -0.0545 
      4 C4          2.1000    8.0341    9.0996 C.ar      1 <1>        -0.0478 
      5 C5          2.3188    6.6676    8.9003 C.ar      1 <1>         0.0487 
      6 C6          1.2358    5.8295    8.6203 C.ar      1 <1>        -0.0478 
      7 C7         -0.0489    6.3623    8.4794 C.ar      1 <1>        -0.0545 
      8 C8          3.7109    6.0829    8.9991 C.2       1 <1>         0.2273 
      9 O9          3.9112    5.3723    9.9711 O.2       1 <1>        -0.3698 
     10 N10         4.6478    6.3076    8.1112 N.pl3     1 <1>        -0.2231 
     11 C11         4.4257    7.1379    6.9193 C.3       1 <1>         0.0593 
     12 C12         5.7757    7.5752    6.2826 C.3       1 <1>        -0.0152 
     13 C13         3.6083    6.3699    5.8496 C.3       1 <1>        -0.0386 
     14 C14         6.4980    8.7386    6.9968 C.3       1 <1>        -0.0476 
     15 C15         5.8307    8.9710    5.6228 C.3       1 <1>        -0.0476 
     16 H1         -1.6106    9.1479    7.6923 H         1 <1>         0.0401 
     17 C17         5.8750    5.7769    8.3278 C.ar      1 <1>         0.0640 
     18 C18         6.7465    6.3958    9.2284 C.ar      1 <1>        -0.0398 
     19 C19         8.0378    5.8936    9.4133 C.ar      1 <1>        -0.0722 
     20 C20         8.4525    4.7596    8.7087 C.ar      1 <1>        -0.0739 
     21 C21         7.5696    4.1186    7.8345 C.ar      1 <1>        -0.0722 
     22 C22         6.2768    4.6194    7.6550 C.ar      1 <1>        -0.0398 
     23 H2         -1.9839    8.7834    9.4070 H         1 <1>         0.0401 
     24 H3         -2.3973    7.6042    8.1277 H         1 <1>         0.0401 
     25 H4          0.6615    9.6353    9.0741 H         1 <1>         0.0570 
     26 H5          2.9261    8.6805    9.3801 H         1 <1>         0.0654 
     27 H6          1.3965    4.7616    8.5099 H         1 <1>         0.0654 
     28 H7         -0.8780    5.6992    8.2545 H         1 <1>         0.0570 
     29 H8          3.8672    8.0465    7.1890 H         1 <1>         0.0593 
     30 H9          6.4417    6.8181    5.8379 H         1 <1>         0.0325 
     31 H10         2.6283    6.0661    6.2436 H         1 <1>         0.0254 
     32 H11         4.1487    5.4684    5.5278 H         1 <1>         0.0254 
     33 H12         3.4448    7.0105    4.9689 H         1 <1>         0.0254 
     34 H13         7.5982    8.6942    7.0174 H         1 <1>         0.0269 
     35 H14         6.0026    9.1885    7.8712 H         1 <1>         0.0269 
     36 H15         6.5162    9.0963    4.7703 H         1 <1>         0.0269 
     37 H16         4.9206    9.5905    5.6213 H         1 <1>         0.0269 
     38 H17         6.4167    7.2688    9.7817 H         1 <1>         0.0529 
     39 H18         8.7176    6.3839   10.1032 H         1 <1>         0.0586 
     40 H19         9.4594    4.3758    8.8418 H         1 <1>         0.0514 
     41 H20         7.8876    3.2313    7.2957 H         1 <1>         0.0586 
     42 H21         5.5851    4.1081    6.9956 H         1 <1>         0.0529 
@<TRIPOS>BOND
     1    2    1 1    
     2    3    2 ar   
     3    4    3 ar   
     4    5    4 ar   
     5    5    6 ar   
     6    6    7 ar   
     7    7    2 ar   
     8    8    5 1    
     9    8    9 2    
    10   10    8 1    
    11   10   11 1    
    12   11   12 1    
    13   11   13 1    
    14   17   10 1    
    15   12   14 1    
    16   14   15 1    
    17   12   15 1    
    18    1   16 1    
    19   17   18 ar   
    20   18   19 ar   
    21   19   20 ar   
    22   21   20 ar   
    23   22   21 ar   
    24   17   22 ar   
    25    1   23 1    
    26    1   24 1    
    27    3   25 1    
    28    4   26 1    
    29    6   27 1    
    30    7   28 1    
    31   11   29 1    
    32   12   30 1    
    33   13   31 1    
    34   13   32 1    
    35   13   33 1    
    36   14   34 1    
    37   14   35 1    
    38   15   36 1    
    39   15   37 1    
    40   18   38 1    
    41   19   39 1    
    42   20   40 1    
    43   21   41 1    
    44   22   42 1    
@<TRIPOS>SUBSTRUCTURE
     1 ****       17 TEMP              0 ****  ****    0 ROOT 
@<TRIPOS>NORMAL
@<TRIPOS>FF_PBC
FORCE_FIELD_SETUP_FEATURE Force Field Setup information
v1.0  0 0.000000 0.000000 0.000000 0.000000 0.000000 0.000000 NONE 0 0 0 0 1 0 0 0 0 0 0 0 0
