#	Name:			PISM00219
#	Creating user name:	14062
#	Creation time:		Mon Apr 01 21:59:41 2019

#	Modifying user name:	14062
#	Modification time:	Mon Apr 01 22:00:22 2019

@<TRIPOS>MOLECULE
PISM00219
   49    51     1     2     0
SMALL
GAST_HUCK


@<TRIPOS>ATOM
      1 N1          3.0689    8.1073    2.7411 N.pl3     1 <1>        -0.2884 
      2 C2          2.0188    8.8673    2.3787 C.ar      1 <1>         0.0606 
      3 C3          1.4461    8.3418    1.2375 C.ar      1 <1>        -0.0189 
      4 C4          0.3239    8.9200    0.6409 C.ar      1 <1>        -0.0745 
      5 C5         -0.1805   10.0841    1.2364 C.ar      1 <1>        -0.0792 
      6 C6          0.4072   10.6235    2.3929 C.ar      1 <1>        -0.0767 
      7 C7          2.3160    7.1447    0.9449 C.2       1 <1>        -0.0209 
      8 C8          3.2414    7.1034    1.9185 C.2       1 <1>         0.0197 
      9 C9          1.5196   10.0161    2.9922 C.ar      1 <1>        -0.0442 
     10 C10         2.1302    6.2114   -0.2289 C.3       1 <1>         0.0912 
     11 C11         1.0477    5.2251    0.1119 C.2       1 <1>         0.2417 
     12 O12         0.0511    5.0983   -0.5796 O.2       1 <1>        -0.3685 
     13 O13         1.2486    4.4923    1.2052 O.3       1 <1>        -0.2916 
     14 C14         3.4275    5.4932   -0.7015 C.3       1 <1>         0.0465 
     15 C15         3.6643    4.1640   -0.0299 C.2       1 <1>         0.1316 
     16 O16         4.3549    4.1556    0.9767 O.2       1 <1>        -0.3815 
     17 C17         3.1005    2.8488   -0.5351 C.ar      1 <1>         0.0258 
     18 C18         3.5024    1.6648    0.0904 C.ar      1 <1>        -0.0496 
     19 C19         3.0419    0.4227   -0.3551 C.ar      1 <1>        -0.0541 
     20 C20         2.2558    0.3362   -1.5070 C.ar      1 <1>        -0.0380 
     21 C21         1.7974    1.5172   -2.1024 C.ar      1 <1>        -0.0541 
     22 C22         2.1961    2.7633   -1.6055 C.ar      1 <1>        -0.0496 
     23 C23         1.9346   -1.0447   -2.0991 C.3       1 <1>        -0.0168 
     24 H1          3.6630    8.2981    3.5609 H         1 <1>         0.2219 
     25 H2         -0.1371    8.4850   -0.2378 H         1 <1>         0.0540 
     26 H3         -1.0409   10.5793    0.7968 H         1 <1>         0.0510 
     27 H4         -0.0032   11.5281    2.8331 H         1 <1>         0.0530 
     28 H5          4.0264    6.3551    2.0290 H         1 <1>         0.0804 
     29 H6          1.9762   10.4180    3.8909 H         1 <1>         0.0541 
     30 H7          1.7739    6.8514   -1.0531 H         1 <1>         0.0659 
     31 H8          0.5400    3.8728    1.3388 H         1 <1>         0.2540 
     32 H9          4.2968    6.1456   -0.5230 H         1 <1>         0.0526 
     33 H10         3.3895    5.3217   -1.7880 H         1 <1>         0.0526 
     34 H11         4.1852    1.6996    0.9329 H         1 <1>         0.0655 
     35 H12         3.3078   -0.4705    0.2011 H         1 <1>         0.0571 
     36 H13         1.1287    1.4758   -2.9568 H         1 <1>         0.0571 
     37 H14         1.7874    3.6540   -2.0730 H         1 <1>         0.0655 
     38 H15         1.2617   -0.9463   -2.9663 H         1 <1>         0.0437 
     39 H16         1.4190   -1.6512   -1.3347 H         1 <1>         0.0437 
     40 C40         3.2577   -1.7339   -2.5364 C.3       1 <1>        -0.0428 
     41 C41         2.9993   -2.9880   -3.4108 C.3       1 <1>        -0.0540 
     42 C42         4.3203   -3.7472   -3.7045 C.3       1 <1>        -0.0651 
     43 H17         3.8291   -2.0318   -1.6430 H         1 <1>         0.0288 
     44 H18         3.8695   -1.0169   -3.1090 H         1 <1>         0.0288 
     45 H19         2.5395   -2.6767   -4.3633 H         1 <1>         0.0264 
     46 H20         2.2965   -3.6615   -2.8925 H         1 <1>         0.0264 
     47 H21         4.7365   -4.1604   -2.7720 H         1 <1>         0.0230 
     48 H22         5.0674   -3.0778   -4.1599 H         1 <1>         0.0230 
     49 H23         4.1236   -4.5795   -4.4012 H         1 <1>         0.0230 
@<TRIPOS>BOND
     1    8    1 1    
     2    1    2 1    
     3    2    3 ar   
     4    3    7 1    
     5    3    4 ar   
     6    4    5 ar   
     7    5    6 ar   
     8    7    8 2    
     9    6    9 ar   
    10    2    9 ar   
    11    7   10 1    
    12   10   11 1    
    13   11   12 2    
    14   11   13 1    
    15   10   14 1    
    16   14   15 1    
    17   15   16 2    
    18   15   17 1    
    19   17   18 ar   
    20   18   19 ar   
    21   19   20 ar   
    22   20   21 ar   
    23   21   22 ar   
    24   17   22 ar   
    25   20   23 1    
    26    1   24 1    
    27    4   25 1    
    28    5   26 1    
    29    6   27 1    
    30    8   28 1    
    31    9   29 1    
    32   10   30 1    
    33   13   31 1    
    34   14   32 1    
    35   14   33 1    
    36   18   34 1    
    37   19   35 1    
    38   21   36 1    
    39   22   37 1    
    40   23   38 1    
    41   23   39 1    
    42   23   40 1    
    43   40   41 1    
    44   41   42 1    
    45   40   43 1    
    46   40   44 1    
    47   41   45 1    
    48   41   46 1    
    49   42   47 1    
    50   42   48 1    
    51   42   49 1    
@<TRIPOS>SUBSTRUCTURE
     1 ****        7 TEMP              0 ****  ****    0 ROOT 
@<TRIPOS>NORMAL
@<TRIPOS>FF_PBC
FORCE_FIELD_SETUP_FEATURE Force Field Setup information
v1.0  0 0.000000 0.000000 0.000000 0.000000 0.000000 0.000000 NONE 0 0 0 0 1 0 0 0 0 0 0 0 0
@<TRIPOS>RENDERING_ATTRS
ANTIALIASED_LINES 
1,2,3,4,5,6,7,8,9,10,11,12,13,14,15,16,17,18,19,20,21,22,23
