#	Name:			PISM00714
#	Creating user name:	baoopengkun
#	Creation time:		Sun Jan 20 21:34:04 2019

#	Modifying user name:	baoopengkun
#	Modification time:	Sun Jan 20 21:40:44 2019

@<TRIPOS>MOLECULE
PISM00714
   85    88     1     1     0
SMALL
GAST_HUCK


@<TRIPOS>ATOM
      1 C1          1.2077    4.8025    7.5977 C.3       1 <1>        -0.0170 
      2 C2          0.2106    4.0113    8.4913 C.3       1 <1>         0.0818 
      3 C3          0.8774    2.7505    9.0991 C.3       1 <1>         0.0828 
      4 C4          2.1307    3.1677    9.9132 C.3       1 <1>        -0.0134 
      5 C5          3.1201    3.9516    8.9991 C.3       1 <1>        -0.0073 
      6 C6          2.5269    5.2333    8.3223 C.3       1 <1>        -0.0159 
      7 C7          3.5685    5.8714    7.3053 C.3       1 <1>        -0.0282 
      8 C8          4.4133    4.8451    6.4663 C.3       1 <1>        -0.0235 
      9 C9          5.6517    4.2639    7.2364 C.3       1 <1>        -0.0223 
     10 C10         5.6546    4.1870    8.7483 C.2       1 <1>        -0.0749 
     11 C11         4.4623    4.2533    9.6165 C.2       1 <1>        -0.0651 
     12 C12         4.6089    4.5666   10.9118 C.2       1 <1>        -0.1200 
     13 C13         2.9209    6.9298    6.3524 C.3       1 <1>        -0.0486 
     14 C14         3.9653    7.7690    5.5499 C.3       1 <1>        -0.0468 
     15 C15         5.1779    6.9394    5.0041 C.3       1 <1>        -0.0256 
     16 C16         4.7774    5.4352    5.0579 C.3       1 <1>        -0.0298 
     17 C17         5.8268    4.6953    4.1936 C.3       1 <1>        -0.0489 
     18 C18         6.1950    5.7448    3.1055 C.3       1 <1>        -0.0491 
     19 C19         5.4616    7.0783    3.4638 C.3       1 <1>        -0.0303 
     20 O20        -0.9485    3.6286    7.7301 O.3       1 <1>        -0.3892 
     21 O21         1.2216    1.8588    8.0202 O.3       1 <1>        -0.3891 
     22 H1          0.6561    5.6815    7.2309 H         1 <1>         0.0298 
     23 C23         2.1923    6.2981    9.4248 C.3       1 <1>        -0.0575 
     24 C24         6.4677    7.2772    5.8197 C.3       1 <1>        -0.0590 
     25 C25         6.2107    8.3480    2.9195 C.3       1 <1>        -0.0120 
     26 C26         6.4059    8.2511    1.3674 C.3       1 <1>         0.0841 
     27 C27         7.1942    9.4558    0.7457 C.3       1 <1>         0.0841 
     28 C28         7.9549    9.1039   -0.5862 C.3       1 <1>        -0.0130 
     29 C29         9.4546    8.6920   -0.3348 C.3       1 <1>        -0.0417 
     30 C30        10.2075    8.3073   -1.6455 C.3       1 <1>        -0.0623 
     31 C31         9.6140    7.5142    0.6724 C.3       1 <1>        -0.0623 
     32 C32         5.4772    9.6683    3.2950 C.3       1 <1>        -0.0597 
     33 O33         5.1083    8.1231    0.7488 O.3       1 <1>        -0.3890 
     34 O34         6.2920   10.5684    0.5939 O.3       1 <1>        -0.3890 
     35 C35         7.8767   10.2971   -1.5889 C.3       1 <1>        -0.0597 
     36 H2          1.4527    4.1737    6.7291 H         1 <1>         0.0298 
     37 H3         -0.1706    4.6546    9.2997 H         1 <1>         0.0619 
     38 H4          0.1422    2.2520    9.7571 H         1 <1>         0.0620 
     39 H5          2.6273    2.2608   10.2975 H         1 <1>         0.0312 
     40 H6          1.7972    3.7389   10.7891 H         1 <1>         0.0312 
     41 H7          3.3340    3.1928    8.2348 H         1 <1>         0.0436 
     42 H8          4.3024    6.4373    7.8972 H         1 <1>         0.0313 
     43 H9          3.7694    3.9880    6.2129 H         1 <1>         0.0337 
     44 H10         6.5286    4.8847    7.0278 H         1 <1>         0.0466 
     45 H11         5.8837    3.2556    6.8565 H         1 <1>         0.0466 
     46 H12         6.6242    4.0686    9.2373 H         1 <1>         0.0593 
     47 H13         3.7767    4.6374   11.6076 H         1 <1>         0.0265 
     48 H14         5.5925    4.7752   11.3320 H         1 <1>         0.0265 
     49 H15         2.2980    7.6510    6.9008 H         1 <1>         0.0268 
     50 H16         2.2493    6.4201    5.6447 H         1 <1>         0.0268 
     51 H17         4.3279    8.5692    6.2162 H         1 <1>         0.0271 
     52 H18         3.4204    8.2589    4.7272 H         1 <1>         0.0271 
     53 H19         3.8608    5.3489    4.4429 H         1 <1>         0.0311 
     54 H20         5.4193    3.7628    3.7661 H         1 <1>         0.0268 
     55 H21         6.7283    4.4247    4.7616 H         1 <1>         0.0268 
     56 H22         5.8921    5.3832    2.1081 H         1 <1>         0.0268 
     57 H23         7.2884    5.8895    3.0975 H         1 <1>         0.0268 
     58 H24         4.4846    7.0610    2.9504 H         1 <1>         0.0310 
     59 H25        -0.7259    3.0104    7.0402 H         1 <1>         0.2099 
     60 H26         1.6126    1.0437    8.3190 H         1 <1>         0.2099 
     61 H27         1.6570    7.1629    9.0131 H         1 <1>         0.0237 
     62 H28         3.1093    6.6734    9.9022 H         1 <1>         0.0237 
     63 H29         1.5581    5.9140   10.2301 H         1 <1>         0.0237 
     64 H30         7.3283    6.6665    5.5145 H         1 <1>         0.0235 
     65 H31         6.3103    7.1515    6.8979 H         1 <1>         0.0235 
     66 H32         6.7509    8.3295    5.6853 H         1 <1>         0.0235 
     67 H33         7.2168    8.3796    3.3675 H         1 <1>         0.0327 
     68 H34         6.9590    7.3271    1.1560 H         1 <1>         0.0622 
     69 H35         7.9452    9.8303    1.4585 H         1 <1>         0.0622 
     70 H36         7.4424    8.2612   -1.0779 H         1 <1>         0.0326 
     71 H37         9.9841    9.5586    0.0989 H         1 <1>         0.0299 
     72 H38         9.6322    7.5565   -2.2084 H         1 <1>         0.0232 
     73 H39        11.1987    7.8826   -1.4235 H         1 <1>         0.0232 
     74 H40        10.3883    9.1787   -2.2909 H         1 <1>         0.0232 
     75 H41         9.2230    7.7659    1.6682 H         1 <1>         0.0232 
     76 H42        10.6770    7.2632    0.8127 H         1 <1>         0.0232 
     77 H43         9.1024    6.6168    0.2925 H         1 <1>         0.0232 
     78 H44         4.4928    9.7105    2.8050 H         1 <1>         0.0233 
     79 H45         6.0585   10.5506    2.9942 H         1 <1>         0.0233 
     80 H46         5.3355    9.7640    4.3770 H         1 <1>         0.0233 
     81 H47         5.1385    7.9356   -0.1843 H         1 <1>         0.2099 
     82 H48         5.4970   10.3345    0.1258 H         1 <1>         0.2099 
     83 H49         8.3125   10.0488   -2.5658 H         1 <1>         0.0233 
     84 H50         8.4029   11.1711   -1.1758 H         1 <1>         0.0233 
     85 H51         6.8369   10.5839   -1.8016 H         1 <1>         0.0233 
@<TRIPOS>BOND
     1    2    1 1    
     2    2    3 1    
     3    3    4 1    
     4    4    5 1    
     5    5    6 1    
     6    1    6 1    
     7    6    7 1    
     8    7    8 1    
     9    8    9 1    
    10    9   10 1    
    11   10   11 1    
    12   11   12 2    
    13    5   11 1    
    14    7   13 1    
    15   13   14 1    
    16   14   15 1    
    17   15   16 1    
    18    8   16 1    
    19   16   17 1    
    20   17   18 1    
    21   18   19 1    
    22   15   19 1    
    23    2   20 1    
    24    3   21 1    
    25    1   22 1    
    26    6   23 1    
    27   15   24 1    
    28   19   25 1    
    29   25   26 1    
    30   26   27 1    
    31   27   28 1    
    32   28   29 1    
    33   29   30 1    
    34   29   31 1    
    35   25   32 1    
    36   26   33 1    
    37   27   34 1    
    38   28   35 1    
    39    1   36 1    
    40    2   37 1    
    41    3   38 1    
    42    4   39 1    
    43    4   40 1    
    44    5   41 1    
    45    7   42 1    
    46    8   43 1    
    47    9   44 1    
    48    9   45 1    
    49   10   46 1    
    50   12   47 1    
    51   12   48 1    
    52   13   49 1    
    53   13   50 1    
    54   14   51 1    
    55   14   52 1    
    56   16   53 1    
    57   17   54 1    
    58   17   55 1    
    59   18   56 1    
    60   18   57 1    
    61   19   58 1    
    62   20   59 1    
    63   21   60 1    
    64   23   61 1    
    65   23   62 1    
    66   23   63 1    
    67   24   64 1    
    68   24   65 1    
    69   24   66 1    
    70   25   67 1    
    71   26   68 1    
    72   27   69 1    
    73   28   70 1    
    74   29   71 1    
    75   30   72 1    
    76   30   73 1    
    77   30   74 1    
    78   31   75 1    
    79   31   76 1    
    80   31   77 1    
    81   32   78 1    
    82   32   79 1    
    83   32   80 1    
    84   33   81 1    
    85   34   82 1    
    86   35   83 1    
    87   35   84 1    
    88   35   85 1    
@<TRIPOS>SUBSTRUCTURE
     1 ****        2 TEMP              0 ****  ****    0 ROOT 
@<TRIPOS>NORMAL
@<TRIPOS>FF_PBC
FORCE_FIELD_SETUP_FEATURE Force Field Setup information
v1.0  0 0.000000 0.000000 0.000000 0.000000 0.000000 0.000000 NONE 0 0 0 0 1 0 0 0 0 0 0 0 0
