#	Name:			PISM00101
#	Creating user name:	baoopengkun
#	Creation time:		Sun Dec 16 14:31:07 2018

#	Modifying user name:	baoopengkun
#	Modification time:	Sun Dec 16 14:34:36 2018

@<TRIPOS>MOLECULE
PISM00101
   59    62     1     1     0
SMALL
GAST_HUCK


@<TRIPOS>ATOM
      1 Cl1        -3.0427   15.1931    2.1881 Cl        1 <1>        -0.0771 
      2 C2         -2.2189   14.1280    1.0677 C.ar      1 <1>         0.0330 
      3 C3         -2.8990   13.0518    0.4936 C.ar      1 <1>        -0.0546 
      4 C4         -2.2396   12.1993   -0.3968 C.ar      1 <1>        -0.0591 
      5 C5         -0.8951   12.4138   -0.7265 C.ar      1 <1>        -0.0350 
      6 C6         -0.2224   13.4985   -0.1487 C.ar      1 <1>        -0.0591 
      7 C7         -0.8787   14.3506    0.7443 C.ar      1 <1>        -0.0546 
      8 C8         -0.1633   11.4747   -1.7050 C.3       1 <1>         0.0217 
      9 C9         -0.8290   11.4764   -3.1007 C.3       1 <1>         0.0263 
     10 C10        -0.0814   10.5171   -3.9814 C.2       1 <1>         0.0920 
     11 C11         0.6494    9.3623   -3.4208 C.2       1 <1>         0.0179 
     12 C12         0.6472    9.1056   -2.1049 C.2       1 <1>         0.0657 
     13 C13        -0.0871   10.0288   -1.1508 C.3       1 <1>         0.0263 
     14 N14         1.2593    8.0637   -1.5932 N.pl3     1 <1>        -0.2574 
     15 C15         1.9341    7.1977   -2.3134 C.2       1 <1>         0.0623 
     16 C16         2.0632    7.3268   -3.6432 C.2       1 <1>         0.0458 
     17 C17         1.4038    8.4677   -4.3639 C.3       1 <1>         0.0215 
     18 C18         2.5326    9.2650   -5.0332 C.ar      1 <1>        -0.0174 
     19 C19         2.7569    9.1782   -6.4128 C.ar      1 <1>         0.1202 
     20 O20         1.9116    8.3983   -7.2073 O.3       1 <1>        -0.3297 
     21 C21         1.0492    9.1423   -8.0821 C.3       1 <1>         0.0549 
     22 O22        -0.0858   10.7069   -5.1857 O.2       1 <1>        -0.4144 
     23 C23         3.8323    9.8651   -6.9910 C.ar      1 <1>         0.1118 
     24 C24         4.6274   10.7049   -6.2078 C.ar      1 <1>        -0.0493 
     25 C25         4.3888   10.8169   -4.8361 C.ar      1 <1>        -0.0891 
     26 C26         3.3552   10.0829   -4.2491 C.ar      1 <1>        -0.0797 
     27 O27         4.1273    9.7176   -8.3492 O.3       1 <1>        -0.3274 
     28 C28         4.6612    8.4283   -8.6941 C.3       1 <1>         0.0565 
     29 C29         2.8558    6.3967   -4.4678 C.2       1 <1>         0.2183 
     30 O30         2.3548    5.9351   -5.4806 O.2       1 <1>        -0.3921 
     31 O31         4.1086    6.0877   -4.1012 O.3       1 <1>        -0.2911 
     32 C32         4.7858    5.2155   -5.0267 C.3       1 <1>         0.0629 
     33 C33         2.5580    6.0429   -1.5499 C.3       1 <1>        -0.0002 
     34 H1         -3.9415   12.8800    0.7417 H         1 <1>         0.0606 
     35 H2         -2.7899   11.3695   -0.8259 H         1 <1>         0.0557 
     36 H3          0.8188   13.6923   -0.3863 H         1 <1>         0.0557 
     37 H4         -0.3491   15.1872    1.1887 H         1 <1>         0.0606 
     38 H5          0.8757   11.8230   -1.8441 H         1 <1>         0.0515 
     39 H6         -0.7795   12.4915   -3.5267 H         1 <1>         0.0495 
     40 H7         -1.8813   11.1597   -3.0698 H         1 <1>         0.0495 
     41 H8          0.4331   10.0925   -0.1811 H         1 <1>         0.0528 
     42 H9         -1.0886    9.6077   -0.9783 H         1 <1>         0.0528 
     43 H10         1.2058    7.9153   -0.5718 H         1 <1>         0.2221 
     44 H11         0.6881    8.0647   -5.0971 H         1 <1>         0.0504 
     45 H12         1.6219    9.7390   -8.8077 H         1 <1>         0.0569 
     46 H13         0.3913    9.8087   -7.5051 H         1 <1>         0.0569 
     47 H14         0.4252    8.4243   -8.6337 H         1 <1>         0.0569 
     48 H15         5.4323   11.2661   -6.6705 H         1 <1>         0.0447 
     49 H16         5.0067   11.4705   -4.2279 H         1 <1>         0.0477 
     50 H17         3.1981   10.1518   -3.1776 H         1 <1>         0.0430 
     51 H18         5.5975    8.2411   -8.1457 H         1 <1>         0.0572 
     52 H19         4.8772    8.4248   -9.7724 H         1 <1>         0.0572 
     53 H20         3.9482    7.6178   -8.4782 H         1 <1>         0.0572 
     54 H21         5.7982    5.0309   -4.6390 H         1 <1>         0.0573 
     55 H22         4.8730    5.6833   -6.0208 H         1 <1>         0.0573 
     56 H23         4.2660    4.2484   -5.1194 H         1 <1>         0.0573 
     57 H24         1.8244    5.6149   -0.8500 H         1 <1>         0.0464 
     58 H25         3.4186    6.4177   -0.9761 H         1 <1>         0.0464 
     59 H26         2.8971    5.2142   -2.1863 H         1 <1>         0.0464 
@<TRIPOS>BOND
     1    2    1 1    
     2    2    3 ar   
     3    3    4 ar   
     4    4    5 ar   
     5    5    6 ar   
     6    6    7 ar   
     7    2    7 ar   
     8    5    8 1    
     9    8    9 1    
    10    9   10 1    
    11   10   11 1    
    12   11   12 2    
    13   12   13 1    
    14    8   13 1    
    15   12   14 1    
    16   14   15 1    
    17   15   16 2    
    18   16   17 1    
    19   11   17 1    
    20   17   18 1    
    21   18   19 ar   
    22   19   20 1    
    23   20   21 1    
    24   10   22 2    
    25   19   23 ar   
    26   23   24 ar   
    27   24   25 ar   
    28   25   26 ar   
    29   18   26 ar   
    30   23   27 1    
    31   27   28 1    
    32   16   29 1    
    33   29   30 2    
    34   29   31 1    
    35   31   32 1    
    36   15   33 1    
    37    3   34 1    
    38    4   35 1    
    39    6   36 1    
    40    7   37 1    
    41    8   38 1    
    42    9   39 1    
    43    9   40 1    
    44   13   41 1    
    45   13   42 1    
    46   14   43 1    
    47   17   44 1    
    48   21   45 1    
    49   21   46 1    
    50   21   47 1    
    51   24   48 1    
    52   25   49 1    
    53   26   50 1    
    54   28   51 1    
    55   28   52 1    
    56   28   53 1    
    57   32   54 1    
    58   32   55 1    
    59   32   56 1    
    60   33   57 1    
    61   33   58 1    
    62   33   59 1    
@<TRIPOS>SUBSTRUCTURE
     1 ****        2 TEMP              0 ****  ****    0 ROOT 
@<TRIPOS>NORMAL
@<TRIPOS>FF_PBC
FORCE_FIELD_SETUP_FEATURE Force Field Setup information
v1.0  0 0.000000 0.000000 0.000000 0.000000 0.000000 0.000000 NONE 0 0 0 0 1 0 0 0 0 0 0 0 0
