#	Name:			PISM00146
#	Creating user name:	14062
#	Creation time:		Sat Oct 19 22:20:32 2019

#	Modifying user name:	14062
#	Modification time:	Sat Oct 19 22:23:39 2019

@<TRIPOS>MOLECULE
PISM00146
   35    37     1     1     0
SMALL
GAST_HUCK


@<TRIPOS>ATOM
      1 N1         -2.8738    2.0408    7.4836 N.2       1 BENZYL     -0.2278 
      2 C2         -4.0835    2.5865    8.0477 C.2       1 BENZYL      0.2699 
      3 N3         -5.0666    2.9533    7.2792 N.pl3     1 BENZYL     -0.2188 
      4 C4         -4.9669    2.8451    5.9775 C.2       1 BENZYL      0.1566 
      5 C5         -3.8628    2.3552    5.3953 C.2       1 BENZYL      0.0481 
      6 C6         -2.7352    1.8982    6.2307 C.2       1 BENZYL      0.0819 
      7 O7         -4.1557    2.6893    9.2595 O.2       1 BENZYL     -0.3794 
      8 C8         -6.1296    3.2869    5.1231 C.3       1 BENZYL      0.3921 
      9 C9         -1.4934    1.3088    5.6994 C.2       1 BENZYL     -0.0172 
     10 C10        -1.4222    0.4560    4.6684 C.2       1 BENZYL     -0.0058 
     11 C11        -2.5724   -0.1032    3.9353 C.2       1 BENZYL      0.1374 
     12 C12        -3.7233   -0.4694    4.5033 C.2       1 BENZYL     -0.0308 
     13 C13        -4.5228   -0.9378    3.3746 C.2       1 BENZYL     -0.0301 
     14 C14        -3.7023   -0.7777    2.3316 C.2       1 BENZYL      0.1395 
     15 O15        -2.4930   -0.2788    2.6147 O.3       1 BENZYL     -0.2406 
     16 Cl16       -7.2247   -2.3382   -1.2959 Cl        1 BENZYL     -0.0705 
     17 C2         -4.0548   -1.1204    0.8967 C.ar      1 BENZYL      0.0240 
     18 C3         -5.3417   -1.5123    0.5047 C.ar      1 BENZYL     -0.0349 
     19 C4         -5.6132   -1.8348   -0.8281 C.ar      1 BENZYL      0.0427 
     20 C5         -4.6031   -1.7562   -1.7891 C.ar      1 BENZYL     -0.0328 
     21 C6         -3.3203   -1.3543   -1.4118 C.ar      1 BENZYL      0.0427 
     22 C7         -3.0514   -1.0394   -0.0770 C.ar      1 BENZYL     -0.0349 
     23 Cl23       -2.0489   -1.2456   -2.6119 Cl        1 BENZYL     -0.0705 
     24 H1         -5.9254    3.3362    7.7054 H         1 BENZYL      0.2224 
     25 H2         -3.7992    2.2992    4.3088 H         1 BENZYL      0.1183 
     26 F26        -5.7309    4.2993    4.3079 F         1 BENZYL     -0.2390 
     27 F27        -7.1475    3.7123    5.9201 F         1 BENZYL     -0.2390 
     28 F28        -6.5471    2.2353    4.3678 F         1 BENZYL     -0.2390 
     29 H6         -0.5724    1.6095    6.2009 H         1 BENZYL      0.0606 
     30 H7         -0.4416    0.1268    4.3224 H         1 BENZYL      0.0808 
     31 H8         -4.0172   -0.4399    5.5520 H         1 BENZYL      0.0546 
     32 H9         -5.5403   -1.3174    3.4404 H         1 BENZYL      0.0471 
     33 H10        -6.1526   -1.5713    1.2191 H         1 BENZYL      0.0643 
     34 H11        -4.8140   -2.0057   -2.8234 H         1 BENZYL      0.0637 
     35 H12        -2.0474   -0.7310    0.1944 H         1 BENZYL      0.0643 
@<TRIPOS>BOND
     1    1    2 1    
     2    2    3 1    
     3    4    3 1    
     4    5    4 2    
     5    6    5 1    
     6    6    1 2    
     7    2    7 2    
     8    4    8 1    
     9    9    6 1    
    10   10    9 2    
    11   11   10 1    
    12   11   12 2    
    13   13   12 1    
    14   14   13 2    
    15   14   15 1    
    16   15   11 1    
    17   17   14 1    
    18   17   18 ar   
    19   17   22 ar   
    20   22   21 ar   
    21   21   20 ar   
    22   19   20 ar   
    23   18   19 ar   
    24   19   16 1    
    25   21   23 1    
    26    3   24 1    
    27    5   25 1    
    28    8   26 1    
    29    8   27 1    
    30    8   28 1    
    31    9   29 1    
    32   10   30 1    
    33   12   31 1    
    34   13   32 1    
    35   18   33 1    
    36   20   34 1    
    37   22   35 1    
@<TRIPOS>SUBSTRUCTURE
     1 BENZYL     17 PERM              0 ****  ****    0 ROOT 
@<TRIPOS>NORMAL
@<TRIPOS>FF_PBC
FORCE_FIELD_SETUP_FEATURE Force Field Setup information
v1.0  0 0.000000 0.000000 0.000000 0.000000 0.000000 0.000000 NONE 0 0 0 0 1 0 0 0 0 0 0 0 0
