#	Name:			PISM01079
#	Creating user name:	14062
#	Creation time:		Fri Jul 12 00:25:46 2019

#	Modifying user name:	14062
#	Modification time:	Fri Jul 12 00:26:37 2019

@<TRIPOS>MOLECULE
PISM01079
   53    56     1     1     0
SMALL
GAST_HUCK


@<TRIPOS>ATOM
      1 C1          1.2704    4.5532   -3.4707 C.2       1 <1>        -0.0777 
      2 C2          0.0161    4.1027   -3.6086 C.2       1 <1>        -0.0536 
      3 C3         -0.5750    3.1029   -2.6313 C.3       1 <1>         0.0809 
      4 C4          0.4527    2.3786   -1.6954 C.3       1 <1>        -0.0060 
      5 C5          1.9481    2.5285   -2.1346 C.3       1 <1>         0.0428 
      6 C6          2.0985    4.0749   -2.3152 C.3       1 <1>         0.0754 
      7 C7         -0.8832    4.5614   -4.7335 C.3       1 <1>        -0.0379 
      8 O8          3.4760    4.4599   -2.4185 O.3       1 <1>        -0.3623 
      9 C9          4.2321    4.0922   -1.2396 C.3       1 <1>         0.1208 
     10 C10         3.4018    3.2370   -0.2626 C.3       1 <1>         0.1302 
     11 C11         2.9861    1.9866   -1.0532 C.3       1 <1>         0.0465 
     12 C12         5.2168    3.0077   -1.7229 C.3       1 <1>         0.1153 
     13 C13         4.4346    1.6586   -1.5789 C.3       1 <1>         0.1248 
     14 C14         2.4100    0.8207   -0.1821 C.3       1 <1>        -0.0532 
     15 O15        -1.4154    2.1521   -3.3115 O.3       1 <1>        -0.3808 
     16 H1          1.7078    5.2685   -4.1670 H         1 <1>         0.0268 
     17 H2         -1.2883    3.6749   -2.0132 H         1 <1>         0.0741 
     18 H3          0.1706    1.3165   -1.6318 H         1 <1>         0.0320 
     19 O19         2.1584    0.3783   -3.2709 O.3       1 <1>        -0.2763 
     20 H4          0.3463    2.8096   -0.6856 H         1 <1>         0.0320 
     21 H5          1.6932    4.6437   -1.4584 H         1 <1>         0.0677 
     22 H6         -0.4283    5.3687   -5.3271 H         1 <1>         0.0376 
     23 H7         -1.8320    4.9328   -4.3184 H         1 <1>         0.0376 
     24 H8         -1.0971    3.7193   -5.4080 H         1 <1>         0.0376 
     25 O25         2.8274    3.6893    0.9264 O.3       1 <1>        -0.3648 
     26 C26         4.0653    3.0527    1.1704 C.3       1 <1>         0.0808 
     27 C27         2.1382    1.8002   -3.5040 C.3       1 <1>         0.0867 
     28 H9          4.7154    4.9747   -0.7917 H         1 <1>         0.0655 
     29 O29         5.7181    3.2920   -3.0413 O.3       1 <1>        -0.3862 
     30 O30         5.1048    0.8481   -0.5822 O.3       1 <1>        -0.2704 
     31 H10         6.0908    3.0069   -1.0507 H         1 <1>         0.0650 
     32 C32         6.3095    0.3829   -0.9422 C.2       1 <1>         0.2310 
     33 O33         6.8164    0.5942   -2.0313 O.2       1 <1>        -0.3707 
     34 C34         7.0043   -0.4520    0.0945 C.3       1 <1>         0.0372 
     35 H11         4.4254    1.0706   -2.5073 H         1 <1>         0.0683 
     36 C36         2.3577   -0.3528   -4.3752 C.2       1 <1>         0.2306 
     37 C37         2.4123   -1.8359   -4.1484 C.3       1 <1>         0.0372 
     38 O38         2.4865    0.1318   -5.4879 O.2       1 <1>        -0.3707 
     39 H12         1.5517    1.1516    0.4178 H         1 <1>         0.0237 
     40 H13         3.1265    0.4045    0.5375 H         1 <1>         0.0237 
     41 H14         2.0942   -0.0112   -0.8266 H         1 <1>         0.0237 
     42 H15        -0.9481    1.5762   -3.9062 H         1 <1>         0.2129 
     43 H16         4.7382    3.8234    1.5747 H         1 <1>         0.0590 
     44 H17         3.8236    2.2347    1.8628 H         1 <1>         0.0590 
     45 H18         1.3361    2.0233   -4.2191 H         1 <1>         0.0621 
     46 H19         3.0651    2.1451   -3.9838 H         1 <1>         0.0621 
     47 H20         5.0136    3.4839   -3.6510 H         1 <1>         0.2100 
     48 H21         6.5471   -1.4515    0.1184 H         1 <1>         0.0483 
     49 H22         6.9028    0.0176    1.0839 H         1 <1>         0.0483 
     50 H23         8.0730   -0.5493   -0.1476 H         1 <1>         0.0483 
     51 H24         1.4516   -2.1779   -3.7371 H         1 <1>         0.0483 
     52 H25         3.2158   -2.0660   -3.4336 H         1 <1>         0.0483 
     53 H26         2.6088   -2.3636   -5.0935 H         1 <1>         0.0483 
@<TRIPOS>BOND
     1    1    2 2    
     2    3    2 1    
     3    4    3 1    
     4    5    4 1    
     5    5    6 1    
     6    6    1 1    
     7    2    7 1    
     8    6    8 1    
     9    8    9 1    
    10   10    9 1    
    11   11   10 1    
    12    5   11 1    
    13   12    9 1    
    14   13   12 1    
    15   11   13 1    
    16   11   14 1    
    17    3   15 1    
    18   27   19 1    
    19    1   16 1    
    20    3   17 1    
    21    4   18 1    
    22    4   20 1    
    23    6   21 1    
    24    7   22 1    
    25    7   23 1    
    26    7   24 1    
    27   10   25 1    
    28   10   26 1    
    29    5   27 1    
    30    9   28 1    
    31   12   29 1    
    32   13   30 1    
    33   12   31 1    
    34   26   25 1    
    35   30   32 1    
    36   32   33 2    
    37   32   34 1    
    38   13   35 1    
    39   19   36 1    
    40   36   37 1    
    41   36   38 2    
    42   14   39 1    
    43   14   40 1    
    44   14   41 1    
    45   15   42 1    
    46   26   43 1    
    47   26   44 1    
    48   27   45 1    
    49   27   46 1    
    50   29   47 1    
    51   34   48 1    
    52   34   49 1    
    53   34   50 1    
    54   37   51 1    
    55   37   52 1    
    56   37   53 1    
@<TRIPOS>SUBSTRUCTURE
     1 ****        2 TEMP              0 ****  ****    0 ROOT 
@<TRIPOS>NORMAL
@<TRIPOS>FF_PBC
FORCE_FIELD_SETUP_FEATURE Force Field Setup information
v1.0  0 0.000000 0.000000 0.000000 0.000000 0.000000 0.000000 NONE 0 0 0 0 1 0 0 0 0 0 0 0 0
