#	Name:			PISM00964
#	Creating user name:	baoopengkun
#	Creation time:		Thu Dec 13 10:35:31 2018

#	Modifying user name:	baoopengkun
#	Modification time:	Thu Dec 13 11:03:10 2018

@<TRIPOS>MOLECULE
PISM00964
   41    43     1     1     0
SMALL
GAST_HUCK


@<TRIPOS>ATOM
      1 C1         -7.4410   12.1936   -7.5104 C.ar      1 <1>         0.0379 
      2 C2         -6.9095   11.5402   -6.3981 C.ar      1 <1>         0.1648 
      3 C3         -7.6157   10.4880   -5.8133 C.ar      1 <1>        -0.0007 
      4 C4         -8.8592   10.1089   -6.3273 C.ar      1 <1>        -0.0398 
      5 C5         -9.4270   10.7919   -7.4122 C.ar      1 <1>         0.0092 
      6 C6         -8.6796   11.8062   -8.0265 C.ar      1 <1>         0.1625 
      7 C7        -10.8490   10.4465   -7.9113 C.3       1 <1>         0.0816 
      8 O8        -11.4615    9.6151   -6.9043 O.3       1 <1>        -0.4265 
      9 C9        -10.7180    9.6519   -9.2457 C.3       1 <1>        -0.0398 
     10 C10       -11.6701   11.7638   -8.0658 C.3       1 <1>         0.0781 
     11 N11       -11.2776   12.7130   -7.0319 N.pl3     1 <1>        -0.1849 
     12 N12       -11.1046   12.4429   -5.7075 N.2       1 <1>        -0.1910 
     13 C13       -10.7015   13.4545   -5.0332 C.2       1 <1>         0.0618 
     14 N14       -10.6160   14.4486   -6.0671 N.2       1 <1>        -0.2870 
     15 C15       -10.9521   13.9621   -7.1737 C.2       1 <1>         0.1268 
     16 C16       -12.0649    9.2497   -9.9053 C.3       1 <1>        -0.0249 
     17 C17       -11.7809    8.5515  -11.2435 C.ar      1 <1>        -0.0435 
     18 C18       -11.7343    9.2897  -12.4319 C.ar      1 <1>        -0.0597 
     19 C19       -11.4911    8.6502  -13.6511 C.ar      1 <1>        -0.0546 
     20 C20       -11.2858    7.2687  -13.6881 C.ar      1 <1>         0.0330 
     21 C21       -11.3197    6.5290  -12.5033 C.ar      1 <1>        -0.0546 
     22 C22       -11.5635    7.1695  -11.2849 C.ar      1 <1>        -0.0597 
     23 Cl23      -10.9862    6.4661  -15.2161 Cl        1 <1>        -0.0771 
     24 F24        -5.7347   11.9163   -5.9002 F         1 <1>        -0.1572 
     25 F25        -9.1298   12.4239   -9.1147 F         1 <1>        -0.1564 
     26 H1         -6.8903   13.0035   -7.9754 H         1 <1>         0.0674 
     27 H2         -7.1934    9.9686   -4.9591 H         1 <1>         0.0665 
     28 H3         -9.3758    9.2743   -5.8648 H         1 <1>         0.0822 
     29 H4        -12.3641    9.3733   -7.0747 H         1 <1>         0.1942 
     30 H5        -10.1382    8.7363   -9.0445 H         1 <1>         0.0206 
     31 H6        -10.1513   10.2544   -9.9732 H         1 <1>         0.0206 
     32 H7        -12.7485   11.5736   -7.9615 H         1 <1>         0.0557 
     33 H8        -11.5111   12.2084   -9.0596 H         1 <1>         0.0557 
     34 H9        -10.4839   13.5350   -3.9694 H         1 <1>         0.0863 
     35 H10       -10.9554   14.5242   -8.1068 H         1 <1>         0.1361 
     36 H11       -12.6940   10.1348  -10.0841 H         1 <1>         0.0419 
     37 H12       -12.6335    8.5595   -9.2642 H         1 <1>         0.0419 
     38 H13       -11.8852   10.3644  -12.4138 H         1 <1>         0.0557 
     39 H14       -11.4609    9.2249  -14.5711 H         1 <1>         0.0606 
     40 H15       -11.1561    5.4566  -12.5317 H         1 <1>         0.0606 
     41 H16       -11.5815    6.5869  -10.3692 H         1 <1>         0.0557 
@<TRIPOS>BOND
     1    2    1 ar   
     2    2    3 ar   
     3    3    4 ar   
     4    4    5 ar   
     5    5    6 ar   
     6    1    6 ar   
     7    5    7 1    
     8    7    8 1    
     9    7    9 1    
    10    7   10 1    
    11   10   11 1    
    12   11   12 1    
    13   12   13 2    
    14   13   14 1    
    15   14   15 2    
    16   11   15 1    
    17    9   16 1    
    18   16   17 1    
    19   17   18 ar   
    20   18   19 ar   
    21   19   20 ar   
    22   20   21 ar   
    23   21   22 ar   
    24   17   22 ar   
    25   20   23 1    
    26    2   24 1    
    27    6   25 1    
    28    1   26 1    
    29    3   27 1    
    30    4   28 1    
    31    8   29 1    
    32    9   30 1    
    33    9   31 1    
    34   10   32 1    
    35   10   33 1    
    36   13   34 1    
    37   15   35 1    
    38   16   36 1    
    39   16   37 1    
    40   18   38 1    
    41   19   39 1    
    42   21   40 1    
    43   22   41 1    
@<TRIPOS>SUBSTRUCTURE
     1 ****        2 TEMP              0 ****  ****    0 ROOT 
@<TRIPOS>NORMAL
@<TRIPOS>FF_PBC
FORCE_FIELD_SETUP_FEATURE Force Field Setup information
v1.0  0 0.000000 0.000000 0.000000 0.000000 0.000000 0.000000 NONE 0 0 0 0 1 0 0 0 0 0 0 0 0
