#	Name:			PISM00160
#	Creating user name:	14062
#	Creation time:		Sun Mar 31 11:30:08 2019

#	Modifying user name:	14062
#	Modification time:	Sun Mar 31 11:36:22 2019

@<TRIPOS>MOLECULE
PISM00160
   26    27     1     1     0
SMALL
GAST_HUCK


@<TRIPOS>ATOM
      1 C1          2.7880    9.0597   -8.4347 C.ar      1 <1>        -0.0462 
      2 C2          2.0832    9.5947   -7.3527 C.ar      1 <1>        -0.0516 
      3 C3          2.4427    9.2512   -6.0459 C.ar      1 <1>        -0.0029 
      4 C4          3.5047    8.3703   -5.8224 C.ar      1 <1>        -0.0516 
      5 C5          4.2164    7.8438   -6.9041 C.ar      1 <1>        -0.0462 
      6 C6          3.8591    8.1893   -8.2105 C.ar      1 <1>         0.0416 
      7 Cl7         4.7536    7.5314   -9.5658 Cl        1 <1>        -0.0694 
      8 C8          1.7045    9.8170   -4.8929 C.ar      1 <1>         0.0788 
      9 C9          1.8234   11.1721   -4.5793 C.ar      1 <1>         0.1863 
     10 C10         1.1703   11.6622   -3.4457 C.ar      1 <1>         0.0979 
     11 C11         0.3757   10.7985   -2.6827 C.ar      1 <1>         0.1010 
     12 C12         0.1955    9.4758   -3.1048 C.ar      1 <1>         0.1297 
     13 N13         0.9198    9.0124   -4.1476 N.ar      1 <1>        -0.2897 
     14 Cl14       -0.3638   11.3843   -1.2035 Cl        1 <1>        -0.0662 
     15 F15         2.5516   11.9844   -5.3447 F         1 <1>        -0.1777 
     16 N16         1.3225   13.0229   -3.0806 N.3       1 <1>        -0.2722 
     17 C17        -0.7860    8.5449   -2.4187 C.2       1 <1>         0.2737 
     18 O18        -0.4735    7.3807   -2.2379 O.2       1 <1>        -0.3528 
     19 O19        -1.9993    8.9200   -2.0017 O.3       1 <1>        -0.2922 
     20 H1          2.5051    9.3178   -9.4503 H         1 <1>         0.0626 
     21 H2          1.2554   10.2754   -7.5272 H         1 <1>         0.0633 
     22 H3          3.7762    8.0964   -4.8073 H         1 <1>         0.0633 
     23 H4          5.0466    7.1666   -6.7308 H         1 <1>         0.0626 
     24 H5          1.8184   13.1058   -2.1235 H         1 <1>         0.1528 
     25 H6          0.3624   13.5188   -3.0476 H         1 <1>         0.1528 
     26 H7         -2.2450    9.7935   -2.2761 H         1 <1>         0.2525 
@<TRIPOS>BOND
     1    2    1 ar   
     2    2    3 ar   
     3    3    4 ar   
     4    4    5 ar   
     5    5    6 ar   
     6    1    6 ar   
     7    6    7 1    
     8    3    8 1    
     9    8    9 ar   
    10    9   10 ar   
    11   10   11 ar   
    12   11   12 ar   
    13   12   13 ar   
    14    8   13 ar   
    15   11   14 1    
    16    9   15 1    
    17   10   16 1    
    18   12   17 1    
    19   17   18 2    
    20   17   19 1    
    21    1   20 1    
    22    2   21 1    
    23    4   22 1    
    24    5   23 1    
    25   16   24 1    
    26   16   25 1    
    27   19   26 1    
@<TRIPOS>SUBSTRUCTURE
     1 ****        2 TEMP              0 ****  ****    0 ROOT 
@<TRIPOS>NORMAL
@<TRIPOS>FF_PBC
FORCE_FIELD_SETUP_FEATURE Force Field Setup information
v1.0  0 0.000000 0.000000 0.000000 0.000000 0.000000 0.000000 NONE 0 0 0 0 1 0 0 0 0 0 0 0 0
