#	Name:			PISM00004
#	Creating user name:	baoopengkun
#	Creation time:		Thu Dec 27 16:52:21 2018

#	Modifying user name:	baoopengkun
#	Modification time:	Thu Dec 27 17:16:17 2018

@<TRIPOS>MOLECULE
PISM00004
   38    40     1     1     0
SMALL
GAST_HUCK


@<TRIPOS>ATOM
      1 C1         -0.7804    4.2629  -10.7690 C.3       1 <1>         0.0512 
      2 C2         -2.1109    4.4505  -11.5439 C.3       1 <1>        -0.0430 
      3 C3         -0.1350    5.6391  -10.4531 C.3       1 <1>         0.3017 
      4 C4         -1.1201    6.5222   -9.6405 C.3       1 <1>         0.0512 
      5 C5         -2.4502    6.7097  -10.4159 C.3       1 <1>        -0.0430 
      6 C6         -3.0915    5.3332  -10.7293 C.3       1 <1>        -0.0523 
      7 S7          1.4016    5.4134   -9.5166 S.2       1 <1>         0.3444 
      8 N8          2.3520    4.1853   -9.6982 N.ar      1 <1>         0.1550 
      9 N9          2.0768    6.7222   -8.2494 N.ar      1 <1>         0.1739 
     10 C10         3.0956    6.1715   -7.5596 C.ar      1 <1>         0.3901 
     11 N11         3.7877    5.0804   -7.9701 N.ar      1 <1>        -0.1454 
     12 C12         3.4722    4.1817   -8.9384 C.ar      1 <1>         0.3134 
     13 N13         4.3738    3.1950   -9.1458 N.pl3     1 <1>        -0.2897 
     14 O14         3.4700    6.7394   -6.3440 O.3       1 <1>        -0.2058 
     15 C15         2.5354    6.8096   -5.2978 C.ar      1 <1>         0.1879 
     16 C16         1.3095    6.1308   -5.3518 C.ar      1 <1>         0.1919 
     17 C17         0.4069    6.2218   -4.2884 C.ar      1 <1>         0.1859 
     18 C18         0.7227    6.9815   -3.1590 C.ar      1 <1>         0.1845 
     19 C19         1.9430    7.6592   -3.0988 C.ar      1 <1>         0.1859 
     20 C20         2.8407    7.5737   -4.1668 C.ar      1 <1>         0.1919 
     21 F21         3.9994    8.2244   -4.1134 F         1 <1>        -0.1947 
     22 F22         2.2506    8.3860   -2.0278 F         1 <1>        -0.1920 
     23 F23        -0.1368    7.0592   -2.1467 F         1 <1>        -0.1953 
     24 F24        -0.7569    5.5811   -4.3604 F         1 <1>        -0.1920 
     25 F25         0.9861    5.3914   -6.4165 F         1 <1>        -0.1947 
     26 H1         -0.0885    3.6527  -11.3738 H         1 <1>         0.0373 
     27 H2         -0.9800    3.7225   -9.8287 H         1 <1>         0.0373 
     28 H3         -2.5724    3.4662  -11.7338 H         1 <1>         0.0269 
     29 H4         -1.9119    4.9248  -12.5196 H         1 <1>         0.0269 
     30 H5          0.1154    6.1494  -11.3993 H         1 <1>         0.1599 
     31 H6         -0.6681    7.5097   -9.4471 H         1 <1>         0.0373 
     32 H7         -1.3288    6.0462   -8.6677 H         1 <1>         0.0373 
     33 H8         -2.2610    7.2512  -11.3579 H         1 <1>         0.0269 
     34 H9         -3.1499    7.3135   -9.8128 H         1 <1>         0.0269 
     35 H10        -4.0216    5.4809  -11.3045 H         1 <1>         0.0265 
     36 H11        -3.3537    4.8237   -9.7869 H         1 <1>         0.0265 
     37 H12         5.2405    3.1575   -8.5854 H         1 <1>         0.1848 
     38 H13         4.2079    2.4697   -9.8611 H         1 <1>         0.1848 
@<TRIPOS>BOND
     1    1    2 1    
     2    1    3 1    
     3    3    4 1    
     4    4    5 1    
     5    5    6 1    
     6    2    6 1    
     7    3    7 1    
     8    7    8 2    
     9    7    9 1    
    10    9   10 ar   
    11   10   11 ar   
    12   11   12 ar   
    13    8   12 ar   
    14   12   13 1    
    15   10   14 1    
    16   14   15 1    
    17   15   16 ar   
    18   16   17 ar   
    19   17   18 ar   
    20   18   19 ar   
    21   19   20 ar   
    22   15   20 ar   
    23   20   21 1    
    24   19   22 1    
    25   18   23 1    
    26   17   24 1    
    27   16   25 1    
    28    1   26 1    
    29    1   27 1    
    30    2   28 1    
    31    2   29 1    
    32    3   30 1    
    33    4   31 1    
    34    4   32 1    
    35    5   33 1    
    36    5   34 1    
    37    6   35 1    
    38    6   36 1    
    39   13   37 1    
    40   13   38 1    
@<TRIPOS>SUBSTRUCTURE
     1 ****        1 TEMP              0 ****  ****    0 ROOT 
@<TRIPOS>NORMAL
@<TRIPOS>FF_PBC
FORCE_FIELD_SETUP_FEATURE Force Field Setup information
v1.0  0 0.000000 0.000000 0.000000 0.000000 0.000000 0.000000 NONE 0 0 0 0 1 0 0 0 0 0 0 0 0
