#	Name:			PISM00966
#	Creating user name:	baoopengkun
#	Creation time:		Thu Dec 13 10:35:31 2018

#	Modifying user name:	baoopengkun
#	Modification time:	Thu Dec 13 11:07:04 2018

@<TRIPOS>MOLECULE
PISM00966
   41    43     1     1     0
SMALL
GAST_HUCK


@<TRIPOS>ATOM
      1 C1         -7.7535   12.5658   -7.8755 C.ar      1 <1>         0.0034 
      2 C2         -7.2894   12.1048   -6.6427 C.ar      1 <1>         0.1668 
      3 C3         -8.0028   11.1160   -5.9639 C.ar      1 <1>         0.0034 
      4 C4         -9.1692   10.5852   -6.5225 C.ar      1 <1>        -0.0383 
      5 C5         -9.6361   11.0229   -7.7704 C.ar      1 <1>        -0.0248 
      6 C6         -8.9229   12.0351   -8.4282 C.ar      1 <1>        -0.0383 
      7 C7        -10.9126   10.4141   -8.3992 C.3       1 <1>         0.0828 
      8 O8        -11.3343    9.3201   -7.5612 O.3       1 <1>        -0.4237 
      9 C9        -10.5883    9.8666   -9.8254 C.3       1 <1>        -0.0377 
     10 C10       -12.0067   11.5210   -8.4050 C.3       1 <1>         0.0802 
     11 N11       -12.1450   12.0741   -7.0655 N.pl3     1 <1>        -0.1843 
     12 N12       -12.9703   11.6177   -6.0820 N.2       1 <1>        -0.1909 
     13 C13       -12.9041   12.3104   -5.0063 C.2       1 <1>         0.0618 
     14 N14       -11.9387   13.3049   -5.3853 N.2       1 <1>        -0.2870 
     15 C15       -11.5542   13.1161   -6.5645 C.2       1 <1>         0.1268 
     16 C16       -11.7196    9.0503  -10.5079 C.3       1 <1>        -0.0243 
     17 C17       -11.2662    8.6482  -11.9196 C.ar      1 <1>        -0.0434 
     18 C18       -11.5461    9.4739  -13.0147 C.ar      1 <1>        -0.0597 
     19 C19       -11.1407    9.1032  -14.3002 C.ar      1 <1>        -0.0546 
     20 C20       -10.4485    7.9057  -14.4978 C.ar      1 <1>         0.0330 
     21 C21       -10.1606    7.0812  -13.4073 C.ar      1 <1>        -0.0546 
     22 C22       -10.5655    7.4535  -12.1221 C.ar      1 <1>        -0.0597 
     23 Cl23       -9.9423    7.4395  -16.1089 Cl        1 <1>        -0.0771 
     24 F24        -6.1745   12.6062   -6.1176 F         1 <1>        -0.1556 
     25 H1         -7.2003   13.3387   -8.3992 H         1 <1>         0.0693 
     26 H2         -7.6461   10.7639   -5.0015 H         1 <1>         0.0693 
     27 H3         -9.7058    9.8272   -5.9617 H         1 <1>         0.0841 
     28 H4         -9.2661   12.4313   -9.3767 H         1 <1>         0.0841 
     29 H5        -12.1946    8.9715   -7.7642 H         1 <1>         0.1951 
     30 H6         -9.7042    9.2134   -9.7431 H         1 <1>         0.0212 
     31 H7        -10.3354   10.6949  -10.5037 H         1 <1>         0.0212 
     32 H8        -12.9842   11.1074   -8.6918 H         1 <1>         0.0564 
     33 H9        -11.7576   12.3224   -9.1166 H         1 <1>         0.0564 
     34 H10       -13.4361   12.1799   -4.0652 H         1 <1>         0.0863 
     35 H11       -10.8288   13.7500   -7.0723 H         1 <1>         0.1361 
     36 H12       -12.6446    9.6415  -10.5799 H         1 <1>         0.0419 
     37 H13       -11.9477    8.1339   -9.9425 H         1 <1>         0.0419 
     38 H14       -12.0784   10.4089  -12.8717 H         1 <1>         0.0557 
     39 H15       -11.3622    9.7443  -15.1472 H         1 <1>         0.0606 
     40 H16        -9.6218    6.1518  -13.5606 H         1 <1>         0.0606 
     41 H17       -10.3305    6.8092  -11.2807 H         1 <1>         0.0557 
@<TRIPOS>BOND
     1    2    1 ar   
     2    2    3 ar   
     3    3    4 ar   
     4    4    5 ar   
     5    5    6 ar   
     6    1    6 ar   
     7    5    7 1    
     8    7    8 1    
     9    7    9 1    
    10    7   10 1    
    11   10   11 1    
    12   11   12 1    
    13   12   13 2    
    14   13   14 1    
    15   14   15 2    
    16   11   15 1    
    17    9   16 1    
    18   16   17 1    
    19   17   18 ar   
    20   18   19 ar   
    21   19   20 ar   
    22   20   21 ar   
    23   21   22 ar   
    24   17   22 ar   
    25   20   23 1    
    26    2   24 1    
    27    1   25 1    
    28    3   26 1    
    29    4   27 1    
    30    6   28 1    
    31    8   29 1    
    32    9   30 1    
    33    9   31 1    
    34   10   32 1    
    35   10   33 1    
    36   13   34 1    
    37   15   35 1    
    38   16   36 1    
    39   16   37 1    
    40   18   38 1    
    41   19   39 1    
    42   21   40 1    
    43   22   41 1    
@<TRIPOS>SUBSTRUCTURE
     1 ****        2 TEMP              0 ****  ****    0 ROOT 
@<TRIPOS>NORMAL
@<TRIPOS>FF_PBC
FORCE_FIELD_SETUP_FEATURE Force Field Setup information
v1.0  0 0.000000 0.000000 0.000000 0.000000 0.000000 0.000000 NONE 0 0 0 0 1 0 0 0 0 0 0 0 0
