#	Name:			PISM00896
#	Creating user name:	baoopengkun
#	Creation time:		Fri Dec 14 10:03:55 2018

#	Modifying user name:	baoopengkun
#	Modification time:	Fri Dec 14 10:11:45 2018

@<TRIPOS>MOLECULE
PISM00896
   34    35     1     1     0
SMALL
GAST_HUCK


@<TRIPOS>ATOM
      1 C1          9.9496   14.2079   -5.4509 C.ar      1 <1>        -0.0603 
      2 C2         10.5385   15.2487   -6.1749 C.ar      1 <1>        -0.0686 
      3 C3         10.6161   16.5295   -5.6211 C.ar      1 <1>        -0.0687 
      4 C4         10.1046   16.7664   -4.3423 C.ar      1 <1>        -0.0686 
      5 C5          9.5172   15.7240   -3.6193 C.ar      1 <1>        -0.0603 
      6 C6          9.4322   14.4407   -4.1714 C.ar      1 <1>        -0.0411 
      7 N7          9.2991   11.4541   -1.7758 N.am      1 <1>        -0.2603 
      8 C8         10.0838   10.6806   -0.9982 C.2       1 <1>         0.3248 
      9 O9          9.6360    9.7496   -0.3502 O.2       1 <1>        -0.3773 
     10 O10        11.3803   11.0153   -1.0076 O.3       1 <1>        -0.2139 
     11 C11        12.1962   10.2215   -0.1299 C.3       1 <1>         0.2419 
     12 C12        12.1408    8.7415   -0.4283 C.2       1 <1>        -0.0022 
     13 C13        11.7792    8.0693    0.6633 C.2       1 <1>         0.0291 
     14 C14        11.6022    9.1108    1.6716 C.2       1 <1>         0.2494 
     15 O15        11.8026   10.3548    1.2510 O.3       1 <1>        -0.2315 
     16 C16        11.6034    6.5844    0.8246 C.3       1 <1>        -0.0323 
     17 O17        11.2956    8.8620    2.8252 O.2       1 <1>        -0.3691 
     18 C18         9.8607   12.5625   -2.5469 C.3       1 <1>         0.0423 
     19 C19         8.7807   13.2974   -3.3806 C.3       1 <1>         0.0011 
     20 H1          9.8980   13.2160   -5.8886 H         1 <1>         0.0557 
     21 H2         10.9361   15.0625   -7.1680 H         1 <1>         0.0599 
     22 H3         11.0729   17.3386   -6.1829 H         1 <1>         0.0559 
     23 H4         10.1639   17.7609   -3.9104 H         1 <1>         0.0599 
     24 H5          9.1285   15.9175   -2.6245 H         1 <1>         0.0557 
     25 H6          8.3191   11.2544   -1.8102 H         1 <1>         0.1869 
     26 H7         13.2373   10.5679   -0.2276 H         1 <1>         0.1194 
     27 H8         12.3630    8.2956   -1.3967 H         1 <1>         0.0704 
     28 H9         10.6145    6.2926    0.4411 H         1 <1>         0.0347 
     29 H10        11.6714    6.3083    1.8876 H         1 <1>         0.0347 
     30 H11        12.3820    6.0443    0.2654 H         1 <1>         0.0347 
     31 H12        10.6347   12.1799   -3.2333 H         1 <1>         0.0542 
     32 H13        10.3317   13.2870   -1.8614 H         1 <1>         0.0542 
     33 H14         8.0011   13.6962   -2.7119 H         1 <1>         0.0445 
     34 H15         8.2982   12.5890   -4.0728 H         1 <1>         0.0445 
@<TRIPOS>BOND
     1    1    2 ar   
     2    2    3 ar   
     3    4    3 ar   
     4    5    4 ar   
     5    6    5 ar   
     6    6    1 ar   
     7    7    8 am   
     8   18    7 1    
     9    8    9 2    
    10    8   10 1    
    11   10   11 1    
    12   11   12 1    
    13   12   13 2    
    14   14   13 1    
    15   15   14 1    
    16   11   15 1    
    17   13   16 1    
    18   14   17 2    
    19   19   18 1    
    20    6   19 1    
    21    1   20 1    
    22    2   21 1    
    23    3   22 1    
    24    4   23 1    
    25    5   24 1    
    26    7   25 1    
    27   11   26 1    
    28   12   27 1    
    29   16   28 1    
    30   16   29 1    
    31   16   30 1    
    32   18   31 1    
    33   18   32 1    
    34   19   33 1    
    35   19   34 1    
@<TRIPOS>SUBSTRUCTURE
     1 ****        2 TEMP              0 ****  ****    0 ROOT 
@<TRIPOS>NORMAL
@<TRIPOS>FF_PBC
FORCE_FIELD_SETUP_FEATURE Force Field Setup information
v1.0  0 0.000000 0.000000 0.000000 0.000000 0.000000 0.000000 NONE 0 0 0 0 1 0 0 0 0 0 0 0 0
