#	Name:			PISM01092
#	Creating user name:	Qinrunwen
#	Creation time:		Mon Apr 01 13:32:21 2019

#	Modifying user name:	Qinrunwen
#	Modification time:	Mon Apr 01 13:34:26 2019

@<TRIPOS>MOLECULE
PISM01092
   36    37     1     1     0
SMALL
GAST_HUCK


@<TRIPOS>ATOM
      1 C1         11.1385   36.2411   -6.7989 C.ar      1 <1>        -0.0680 
      2 C2         10.5977   35.0102   -6.4159 C.ar      1 <1>        -0.0554 
      3 C3         10.6576   34.5965   -5.0806 C.ar      1 <1>         0.0052 
      4 C4         11.2897   35.4133   -4.1352 C.ar      1 <1>        -0.0554 
      5 C5         11.8255   36.6472   -4.5156 C.ar      1 <1>        -0.0680 
      6 C6         11.7456   37.0643   -5.8471 C.ar      1 <1>        -0.0684 
      7 C7         10.0178   33.2612   -4.6753 C.3       1 <1>         0.1872 
      8 C8         10.6449   32.1398   -5.4651 C.2       1 <1>         0.2567 
      9 N9          9.8582   31.4559   -6.2540 N.pl3     1 <1>        -0.1724 
     10 N10        10.2561   30.4108   -7.0191 N.2       1 <1>        -0.1890 
     11 C11        11.0266   29.4903   -6.5944 C.2       1 <1>         0.0382 
     12 C12        11.4463   28.3416   -7.4895 C.ar      1 <1>         0.0031 
     13 C13        12.3936   27.4320   -7.0022 C.ar      1 <1>        -0.0536 
     14 C14        12.8237   26.3578   -7.7866 C.ar      1 <1>        -0.0480 
     15 C15        12.3085   26.1850   -9.0728 C.ar      1 <1>         0.0403 
     16 C16        11.3591   27.0840   -9.5628 C.ar      1 <1>        -0.0342 
     17 C17        10.9231   28.1553   -8.7773 C.ar      1 <1>         0.0483 
     18 Cl18       12.8508   24.8469  -10.0648 Cl        1 <1>        -0.0709 
     19 Cl19        9.7152   29.2363   -9.4471 Cl        1 <1>        -0.0699 
     20 O20         8.5986   33.2642   -4.9601 O.3       1 <1>        -0.3465 
     21 C21         7.8660   34.2594   -4.2180 C.3       1 <1>         0.0425 
     22 O22        11.8387   31.9215   -5.3318 O.2       1 <1>        -0.3707 
     23 H1         11.0862   36.5582   -7.8362 H         1 <1>         0.0600 
     24 H2         10.1272   34.3753   -7.1600 H         1 <1>         0.0562 
     25 H3         11.3672   35.0981   -3.0997 H         1 <1>         0.0562 
     26 H4         12.3039   37.2827   -3.7764 H         1 <1>         0.0600 
     27 H5         12.1553   38.0261   -6.1410 H         1 <1>         0.0561 
     28 H6         10.1955   33.0276   -3.6141 H         1 <1>         0.1010 
     29 H7          8.8665   31.7414   -6.3087 H         1 <1>         0.2341 
     30 H8         11.3937   29.5115   -5.5687 H         1 <1>         0.0802 
     31 H9         12.8061   27.5536   -6.0058 H         1 <1>         0.0617 
     32 H10        13.5571   25.6581   -7.3991 H         1 <1>         0.0622 
     33 H11        10.9571   26.9475  -10.5613 H         1 <1>         0.0627 
     34 H12         8.1914   35.2814   -4.4667 H         1 <1>         0.0528 
     35 H13         7.9610   34.1005   -3.1324 H         1 <1>         0.0528 
     36 H14         6.8046   34.1625   -4.4901 H         1 <1>         0.0528 
@<TRIPOS>BOND
     1    2    1 ar   
     2    2    3 ar   
     3    3    4 ar   
     4    4    5 ar   
     5    6    5 ar   
     6    1    6 ar   
     7    3    7 1    
     8    7    8 1    
     9    8    9 1    
    10    9   10 1    
    11   10   11 2    
    12   11   12 1    
    13   12   13 ar   
    14   13   14 ar   
    15   16   15 ar   
    16   14   15 ar   
    17   17   16 ar   
    18   12   17 ar   
    19   15   18 1    
    20   17   19 1    
    21    7   20 1    
    22   20   21 1    
    23    8   22 2    
    24    1   23 1    
    25    2   24 1    
    26    4   25 1    
    27    5   26 1    
    28    6   27 1    
    29    7   28 1    
    30    9   29 1    
    31   11   30 1    
    32   13   31 1    
    33   14   32 1    
    34   16   33 1    
    35   21   34 1    
    36   21   35 1    
    37   21   36 1    
@<TRIPOS>SUBSTRUCTURE
     1 ****        2 TEMP              0 ****  ****    0 ROOT 
@<TRIPOS>NORMAL
@<TRIPOS>FF_PBC
FORCE_FIELD_SETUP_FEATURE Force Field Setup information
v1.0  0 0.000000 0.000000 0.000000 0.000000 0.000000 0.000000 NONE 0 0 0 0 1 0 0 0 0 0 0 0 0
