#	Name:			PISM00626
#	Creating user name:	baoopengkun
#	Creation time:		Mon Dec 10 11:23:13 2018

#	Modifying user name:	baoopengkun
#	Modification time:	Mon Dec 10 11:23:47 2018

@<TRIPOS>MOLECULE
PISM00626
   60    63     1     2     0
SMALL
GAST_HUCK


@<TRIPOS>ATOM
      1 C1         12.1114   -4.4611  -31.2590 C.ar      1 <1>        -0.0348 
      2 C2         12.3097   -5.4817  -30.3249 C.ar      1 <1>        -0.0180 
      3 C3         12.2641   -6.8184  -30.7298 C.ar      1 <1>         0.0714 
      4 C4         11.9918   -7.1342  -32.0634 C.ar      1 <1>        -0.0180 
      5 C5         11.8166   -6.1124  -33.0010 C.ar      1 <1>        -0.0348 
      6 C6         11.9113   -4.7735  -32.6077 C.ar      1 <1>         0.0068 
      7 C7         11.7968   -3.6560  -33.6530 C.3       1 <1>         0.1921 
      8 C8         10.3064   -3.3352  -33.8980 C.3       1 <1>         0.1073 
      9 N9          9.6248   -3.1130  -32.6299 N.pl3     1 <1>        -0.1814 
     10 N10         9.4753   -1.9231  -31.9836 N.2       1 <1>        -0.1908 
     11 C11         8.8159   -2.0222  -30.8895 C.2       1 <1>         0.0618 
     12 N12         8.5232   -3.4290  -30.8792 N.2       1 <1>        -0.2870 
     13 C13         9.0055   -3.9858  -31.8950 C.2       1 <1>         0.1270 
     14 O14        12.5378   -2.4840  -33.2869 O.3       1 <1>        -0.3814 
     15 C15        13.9182   -2.8095  -33.4671 C.3       1 <1>         0.0672 
     16 C16        13.8515   -3.6852  -34.7418 C.3       1 <1>         0.1000 
     17 O17        12.4571   -4.0142  -34.8764 O.3       1 <1>        -0.3758 
     18 C18        14.7629   -4.9364  -34.6595 C.3       1 <1>         0.0952 
     19 O19        14.4309   -5.7236  -33.5043 O.3       1 <1>        -0.3192 
     20 C20        15.2364   -6.8446  -33.3103 C.ar      1 <1>         0.1198 
     21 C21        14.7979   -8.0960  -33.7493 C.ar      1 <1>        -0.0415 
     22 C22        15.5854   -9.2289  -33.5297 C.ar      1 <1>        -0.0819 
     23 C23        16.8254   -9.1002  -32.8978 C.ar      1 <1>        -0.0819 
     24 C24        17.2790   -7.8422  -32.4889 C.ar      1 <1>        -0.0415 
     25 C25        16.4742   -6.7122  -32.6726 C.ar      1 <1>         0.1197 
     26 O26        16.8827   -5.4467  -32.2336 O.3       1 <1>        -0.3218 
     27 C27        17.3534   -5.3181  -30.8808 C.3       1 <1>         0.0681 
     28 C28        17.4308   -3.8065  -30.5470 C.3       1 <1>        -0.0231 
     29 Cl29       12.5474   -8.0978  -29.5674 Cl        1 <1>        -0.0420 
     30 H1         12.1132   -3.4236  -30.9378 H         1 <1>         0.0849 
     31 H2         12.4997   -5.2378  -29.2846 H         1 <1>         0.0703 
     32 H3         11.9207   -8.1731  -32.3688 H         1 <1>         0.0703 
     33 H4         11.6161   -6.3575  -34.0391 H         1 <1>         0.0849 
     34 H5          9.8421   -4.1719  -34.4413 H         1 <1>         0.0595 
     35 H6         10.2369   -2.4310  -34.5205 H         1 <1>         0.0595 
     36 H7          8.5492   -1.2521  -30.1669 H         1 <1>         0.0863 
     37 H8          8.9087   -5.0495  -32.1093 H         1 <1>         0.1361 
     38 H9         14.2827   -3.3790  -32.5977 H         1 <1>         0.0576 
     39 H10        14.5325   -1.9032  -33.5802 H         1 <1>         0.0576 
     40 H11        14.1128   -3.0866  -35.6303 H         1 <1>         0.0635 
     41 H12        15.8134   -4.6065  -34.6037 H         1 <1>         0.0635 
     42 H13        14.6223   -5.5396  -35.5705 H         1 <1>         0.0635 
     43 H14        13.8454   -8.1825  -34.2609 H         1 <1>         0.0509 
     44 H15        15.2359  -10.2058  -33.8505 H         1 <1>         0.0495 
     45 H16        17.4392   -9.9796  -32.7262 H         1 <1>         0.0495 
     46 H17        18.2592   -7.7560  -32.0350 H         1 <1>         0.0509 
     47 C47        18.1674   -3.4944  -29.2095 C.3       1 <1>        -0.0443 
     48 C48        18.1763   -1.9590  -28.9658 C.3       1 <1>        -0.0626 
     49 C49        17.5227   -4.2199  -27.9958 C.3       1 <1>        -0.0626 
     50 H18        18.3510   -5.7689  -30.7680 H         1 <1>         0.0609 
     51 H19        16.6444   -5.8186  -30.2016 H         1 <1>         0.0609 
     52 H20        16.4060   -3.4018  -30.5207 H         1 <1>         0.0293 
     53 H21        17.9691   -3.3067  -31.3690 H         1 <1>         0.0293 
     54 H22        19.2163   -3.8310  -29.2955 H         1 <1>         0.0296 
     55 H23        18.7439   -1.7141  -28.0544 H         1 <1>         0.0232 
     56 H24        17.1480   -1.5836  -28.8478 H         1 <1>         0.0232 
     57 H25        18.6453   -1.4345  -29.8131 H         1 <1>         0.0232 
     58 H26        17.6396   -5.3108  -28.0755 H         1 <1>         0.0232 
     59 H27        16.4507   -3.9804  -27.9310 H         1 <1>         0.0232 
     60 H28        18.0088   -3.9033  -27.0602 H         1 <1>         0.0232 
@<TRIPOS>BOND
     1    2    1 ar   
     2    2    3 ar   
     3    3    4 ar   
     4    4    5 ar   
     5    5    6 ar   
     6    1    6 ar   
     7    6    7 1    
     8    7    8 1    
     9    8    9 1    
    10    9   10 1    
    11   10   11 2    
    12   11   12 1    
    13   12   13 2    
    14    9   13 1    
    15    7   14 1    
    16   14   15 1    
    17   15   16 1    
    18   16   17 1    
    19    7   17 1    
    20   16   18 1    
    21   18   19 1    
    22   19   20 1    
    23   20   21 ar   
    24   21   22 ar   
    25   22   23 ar   
    26   23   24 ar   
    27   24   25 ar   
    28   20   25 ar   
    29   25   26 1    
    30   26   27 1    
    31   27   28 1    
    32    3   29 1    
    33    1   30 1    
    34    2   31 1    
    35    4   32 1    
    36    5   33 1    
    37    8   34 1    
    38    8   35 1    
    39   11   36 1    
    40   13   37 1    
    41   15   38 1    
    42   15   39 1    
    43   16   40 1    
    44   18   41 1    
    45   18   42 1    
    46   21   43 1    
    47   22   44 1    
    48   23   45 1    
    49   24   46 1    
    50   28   47 1    
    51   47   48 1    
    52   47   49 1    
    53   27   50 1    
    54   27   51 1    
    55   28   52 1    
    56   28   53 1    
    57   47   54 1    
    58   48   55 1    
    59   48   56 1    
    60   48   57 1    
    61   49   58 1    
    62   49   59 1    
    63   49   60 1    
@<TRIPOS>SUBSTRUCTURE
     1 ****        2 TEMP              0 ****  ****    0 ROOT 
@<TRIPOS>NORMAL
@<TRIPOS>FF_PBC
FORCE_FIELD_SETUP_FEATURE Force Field Setup information
v1.0  0 0.000000 0.000000 0.000000 0.000000 0.000000 0.000000 NONE 0 0 0 0 1 0 0 0 0 0 0 0 0
@<TRIPOS>RENDERING_ATTRS
ANTIALIASED_LINES 
*
