#	Name:			PISM00096
#	Creating user name:	baoopengkun
#	Creation time:		Sun Dec 16 14:17:11 2018

#	Modifying user name:	baoopengkun
#	Modification time:	Sun Dec 16 14:18:54 2018

@<TRIPOS>MOLECULE
PISM00096
   38    41     1     1     0
SMALL
GAST_HUCK


@<TRIPOS>ATOM
      1 C1         -2.9704   15.5459   -0.1062 C.3       1 <1>        -0.0468 
      2 C2         -3.5684   15.1008    1.2505 C.3       1 <1>        -0.0416 
      3 C3         -3.9987   13.6148    1.1560 C.3       1 <1>        -0.0109 
      4 C4         -2.9376   12.7672    0.5047 C.2       1 <1>         0.0162 
      5 C5         -1.8934   13.2606   -0.1765 C.2       1 <1>        -0.0378 
      6 C6         -1.6759   14.7387   -0.3862 C.3       1 <1>        -0.0353 
      7 S7         -3.0285   10.9784    0.5977 S.3       1 <1>        -0.0206 
      8 C8         -1.5684   10.9263   -0.3837 C.ar      1 <1>         0.1032 
      9 C9         -1.0025   12.1557   -0.6998 C.ar      1 <1>         0.0460 
     10 C10         0.2051   12.1742   -1.4077 C.ar      1 <1>         0.1576 
     11 N11         0.6629   11.0089   -1.9126 N.ar      1 <1>        -0.2636 
     12 C12         0.0823    9.8282   -1.6115 C.ar      1 <1>         0.0561 
     13 N13        -1.0085    9.7820   -0.8198 N.ar      1 <1>        -0.2814 
     14 N14         0.9442   13.2907   -1.6023 N.pl3     1 <1>        -0.1911 
     15 N15         1.8576   13.3011   -2.6028 N.2       1 <1>        -0.1867 
     16 C16         2.6033   14.2999   -2.8653 C.2       1 <1>         0.0395 
     17 C17         3.6027   14.2125   -3.9988 C.ar      1 <1>        -0.0096 
     18 C18         3.7142   13.0390   -4.7533 C.ar      1 <1>        -0.0540 
     19 C19         4.6412   12.9555   -5.7965 C.ar      1 <1>        -0.0617 
     20 C20         5.4621   14.0474   -6.0917 C.ar      1 <1>        -0.0622 
     21 C21         5.3521   15.2229   -5.3436 C.ar      1 <1>        -0.0617 
     22 C22         4.4243   15.3045   -4.3009 C.ar      1 <1>        -0.0540 
     23 H1         -2.7427   16.6252   -0.0895 H         1 <1>         0.0281 
     24 H2         -3.7086   15.3631   -0.9051 H         1 <1>         0.0281 
     25 H3         -4.4379   15.7260    1.5148 H         1 <1>         0.0290 
     26 H4         -2.8064   15.2212    2.0387 H         1 <1>         0.0290 
     27 H5         -4.9118   13.5231    0.5466 H         1 <1>         0.0436 
     28 H6         -4.2150   13.2277    2.1646 H         1 <1>         0.0436 
     29 H7         -1.3612   14.9317   -1.4245 H         1 <1>         0.0348 
     30 H8         -0.8878   15.0771    0.3044 H         1 <1>         0.0348 
     31 H9          0.4978    8.9090   -2.0092 H         1 <1>         0.0985 
     32 H10         0.8682   14.0818   -0.9517 H         1 <1>         0.2410 
     33 H11         2.5380   15.2220   -2.2878 H         1 <1>         0.0815 
     34 H12         3.0809   12.1853   -4.5322 H         1 <1>         0.0620 
     35 H13         4.7235   12.0419   -6.3777 H         1 <1>         0.0616 
     36 H14         6.1837   13.9826   -6.9004 H         1 <1>         0.0613 
     37 H15         5.9879   16.0728   -5.5727 H         1 <1>         0.0616 
     38 H16         4.3460   16.2221   -3.7266 H         1 <1>         0.0620 
@<TRIPOS>BOND
     1    2    1 1    
     2    2    3 1    
     3    3    4 1    
     4    4    5 2    
     5    5    6 1    
     6    1    6 1    
     7    4    7 1    
     8    7    8 1    
     9    8    9 ar   
    10    5    9 1    
    11    9   10 ar   
    12   10   11 ar   
    13   11   12 ar   
    14   12   13 ar   
    15    8   13 ar   
    16   10   14 1    
    17   14   15 1    
    18   15   16 2    
    19   16   17 1    
    20   17   18 ar   
    21   18   19 ar   
    22   19   20 ar   
    23   20   21 ar   
    24   21   22 ar   
    25   17   22 ar   
    26    1   23 1    
    27    1   24 1    
    28    2   25 1    
    29    2   26 1    
    30    3   27 1    
    31    3   28 1    
    32    6   29 1    
    33    6   30 1    
    34   12   31 1    
    35   14   32 1    
    36   16   33 1    
    37   18   34 1    
    38   19   35 1    
    39   20   36 1    
    40   21   37 1    
    41   22   38 1    
@<TRIPOS>SUBSTRUCTURE
     1 ****        2 TEMP              0 ****  ****    0 ROOT 
@<TRIPOS>NORMAL
@<TRIPOS>FF_PBC
FORCE_FIELD_SETUP_FEATURE Force Field Setup information
v1.0  0 0.000000 0.000000 0.000000 0.000000 0.000000 0.000000 NONE 0 0 0 0 1 0 0 0 0 0 0 0 0
