#	Name:			PISM00030
#	Creating user name:	baoopengkun
#	Creation time:		Sat Nov 17 17:25:05 2018

#	Modifying user name:	baoopengkun
#	Modification time:	Sat Nov 17 17:30:27 2018

@<TRIPOS>MOLECULE
PISM00030
   44    47     1     2     0
SMALL
GAST_HUCK


@<TRIPOS>ATOM
      1 O1         -4.5968    0.3710    1.7257 O.2       1 <1>        -0.3836 
      2 C2         -4.3492    0.2320    2.9114 C.2       1 <1>         0.2087 
      3 N3         -3.8351    1.2336    3.6504 N.am      1 <1>        -0.2324 
      4 C4         -3.4729    1.0369    5.0122 C.ar      1 <1>         0.0842 
      5 C5         -3.1488   -0.2536    5.4443 C.ar      1 <1>        -0.0073 
      6 C6         -3.4762   -1.4502    4.5418 C.3       1 <1>         0.0304 
      7 C7         -4.6338   -1.0818    3.5838 C.3       1 <1>         0.0614 
      8 C8         -3.8956   -2.6971    5.3438 C.ar      1 <1>        -0.0399 
      9 C9         -3.4880   -3.9868    4.9778 C.ar      1 <1>        -0.0046 
     10 C10        -3.8061   -5.0725    5.7974 C.ar      1 <1>        -0.0383 
     11 C11        -4.5522   -4.8894    6.9628 C.ar      1 <1>         0.1151 
     12 C12        -5.0236   -3.6167    7.3039 C.ar      1 <1>         0.1167 
     13 C13        -4.7123   -2.5342    6.4706 C.ar      1 <1>        -0.0350 
     14 O14        -4.8235   -5.9898    7.7792 O.3       1 <1>        -0.3287 
     15 C15        -4.0532   -6.0287    8.9916 C.3       1 <1>         0.0554 
     16 O16        -5.7916   -3.4625    8.4699 O.3       1 <1>        -0.3244 
     17 C17        -6.1918   -2.1737    8.9636 C.3       1 <1>         0.0575 
     18 C18        -2.5236   -0.4354    6.6811 C.ar      1 <1>        -0.0740 
     19 C19        -2.3275    0.6575    7.5270 C.ar      1 <1>        -0.0771 
     20 C20        -2.7862    1.9266    7.1562 C.ar      1 <1>        -0.0354 
     21 C21        -3.4152    2.1101    5.9157 C.ar      1 <1>         0.0052 
     22 C22        -3.9765    3.3613    5.6228 C.ar      1 <1>        -0.0583 
     23 C23        -3.8002    4.4437    6.4891 C.ar      1 <1>        -0.0669 
     24 C24        -3.1092    4.2716    7.6897 C.ar      1 <1>        -0.0675 
     25 C25        -2.6168    3.0092    8.0281 C.ar      1 <1>        -0.0633 
     26 Br26       -2.5361   -4.3019    3.4171 Br        1 <1>        -0.0688 
     27 H1         -3.6666    2.0960    3.1741 H         1 <1>         0.2279 
     28 H2         -2.5546   -1.6203    3.9647 H         1 <1>         0.0589 
     29 H3         -5.5747   -0.9667    4.1429 H         1 <1>         0.0549 
     30 H4         -4.7677   -1.8769    2.8330 H         1 <1>         0.0549 
     31 H5         -3.4737   -6.0704    5.5329 H         1 <1>         0.0518 
     32 H6         -5.1014   -1.5476    6.6865 H         1 <1>         0.0460 
     33 H7         -4.3328   -6.9363    9.5461 H         1 <1>         0.0570 
     34 H8         -4.2549   -5.1536    9.6281 H         1 <1>         0.0570 
     35 H9         -2.9769   -6.0716    8.7631 H         1 <1>         0.0570 
     36 H10        -6.7218   -2.3312    9.9145 H         1 <1>         0.0574 
     37 H11        -6.8815   -1.6755    8.2654 H         1 <1>         0.0574 
     38 H12        -5.3157   -1.5347    9.1550 H         1 <1>         0.0574 
     39 H13        -2.1847   -1.4197    6.9890 H         1 <1>         0.0531 
     40 H14        -1.8198    0.5073    8.4750 H         1 <1>         0.0438 
     41 H15        -4.5678    3.5185    4.7283 H         1 <1>         0.0613 
     42 H16        -4.2025    5.4191    6.2314 H         1 <1>         0.0572 
     43 H17        -2.9583    5.1140    8.3582 H         1 <1>         0.0594 
     44 H18        -2.1026    2.8802    8.9756 H         1 <1>         0.0583 
@<TRIPOS>BOND
     1    2    1 2    
     2    2    3 am   
     3    3    4 1    
     4    4    5 ar   
     5    5    6 1    
     6    6    7 1    
     7    2    7 1    
     8    6    8 1    
     9    8    9 ar   
    10    9   10 ar   
    11   10   11 ar   
    12   11   12 ar   
    13   12   13 ar   
    14    8   13 ar   
    15   11   14 1    
    16   14   15 1    
    17   12   16 1    
    18   16   17 1    
    19    5   18 ar   
    20   18   19 ar   
    21   19   20 ar   
    22   20   21 ar   
    23    4   21 ar   
    24   21   22 ar   
    25   22   23 ar   
    26   23   24 ar   
    27   24   25 ar   
    28   20   25 ar   
    29    9   26 1    
    30    3   27 1    
    31    6   28 1    
    32    7   29 1    
    33    7   30 1    
    34   10   31 1    
    35   13   32 1    
    36   15   33 1    
    37   15   34 1    
    38   15   35 1    
    39   17   36 1    
    40   17   37 1    
    41   17   38 1    
    42   18   39 1    
    43   19   40 1    
    44   22   41 1    
    45   23   42 1    
    46   24   43 1    
    47   25   44 1    
@<TRIPOS>SUBSTRUCTURE
     1 ****        2 TEMP              0 ****  ****    0 ROOT 
@<TRIPOS>NORMAL
@<TRIPOS>FF_PBC
FORCE_FIELD_SETUP_FEATURE Force Field Setup information
v1.0  0 0.000000 0.000000 0.000000 0.000000 0.000000 0.000000 NONE 0 0 0 0 1 0 0 0 0 0 0 0 0
@<TRIPOS>RENDERING_ATTRS
ANTIALIASED_LINES 
*
