#	Name:			PISM00783.1
#	Creating user name:	baoopengkun
#	Creation time:		Fri Nov 30 22:26:44 2018

#	Modifying user name:	baoopengkun
#	Modification time:	Fri Nov 30 22:27:04 2018

@<TRIPOS>MOLECULE
PISM00783.1
   33    36     1     2     0
SMALL
GAST_HUCK


@<TRIPOS>ATOM
      1 C1        -24.2871   18.9119   -8.7792 C.2       1 <1>        -0.0924 
      2 C2        -25.3312   18.6519   -9.5665 C.2       1 <1>        -0.0916 
      3 C3        -24.9402   19.0045  -10.9769 C.3       1 <1>         0.0005 
      4 C4        -23.4539   18.5887  -10.9060 C.3       1 <1>        -0.0286 
      5 C5        -23.1740   19.4383   -9.6463 C.3       1 <1>        -0.0026 
      6 C6        -24.8294   20.5514  -11.0353 C.3       1 <1>         0.0626 
      7 C7        -23.5948   20.8507  -10.1314 C.3       1 <1>         0.0532 
      8 C8        -25.9540   21.2660  -10.3365 C.2       1 <1>         0.1099 
      9 C9        -25.6231   21.9375   -9.2286 C.2       1 <1>        -0.0074 
     10 C10       -24.1838   21.7275   -9.0649 C.2       1 <1>         0.0877 
     11 O11       -23.5259   22.2166   -8.1625 O.2       1 <1>        -0.4159 
     12 O12       -27.1892   21.1753  -10.8604 O.3       1 <1>        -0.2475 
     13 C13       -28.2267   21.8863  -10.1646 C.3       1 <1>         0.2446 
     14 C14       -29.5021   21.6909  -10.9478 C.2       1 <1>        -0.0002 
     15 C15       -29.9473   22.8528  -11.4225 C.2       1 <1>         0.0293 
     16 C16       -28.9656   23.8147  -10.9384 C.2       1 <1>         0.2496 
     17 O17       -27.9812   23.3078  -10.2076 O.3       1 <1>        -0.2297 
     18 O18       -29.0434   25.0064  -11.1819 O.2       1 <1>        -0.3691 
     19 C19       -31.1686   23.1297  -12.2560 C.3       1 <1>        -0.0323 
     20 H1        -24.2473   18.7803   -7.6982 H         1 <1>         0.0454 
     21 H2        -26.2992   18.2676   -9.2459 H         1 <1>         0.0455 
     22 H3        -25.5397   18.5244  -11.7666 H         1 <1>         0.0462 
     23 H4        -22.8684   18.9035  -11.7859 H         1 <1>         0.0313 
     24 H5        -23.3098   17.5061  -10.7440 H         1 <1>         0.0313 
     25 H6        -22.1626   19.3507   -9.2190 H         1 <1>         0.0453 
     26 H7        -24.6945   20.9205  -12.0649 H         1 <1>         0.0625 
     27 H8        -22.7851   21.3642  -10.6749 H         1 <1>         0.0565 
     28 H9        -26.2260   22.5298   -8.5426 H         1 <1>         0.0187 
     29 H10       -28.3743   21.5260   -9.1324 H         1 <1>         0.1219 
     30 H11       -29.9828   20.7259  -11.1039 H         1 <1>         0.0707 
     31 H12       -31.7524   22.2119  -12.4220 H         1 <1>         0.0347 
     32 H13       -30.8589   23.5390  -13.2290 H         1 <1>         0.0347 
     33 H14       -31.8015   23.8686  -11.7422 H         1 <1>         0.0347 
@<TRIPOS>BOND
     1    2    1 2    
     2    2    3 1    
     3    3    4 1    
     4    4    5 1    
     5    1    5 1    
     6    3    6 1    
     7    6    7 1    
     8    5    7 1    
     9    6    8 1    
    10    8    9 2    
    11    9   10 1    
    12    7   10 1    
    13   10   11 2    
    14    8   12 1    
    15   12   13 1    
    16   13   14 1    
    17   14   15 2    
    18   15   16 1    
    19   16   17 1    
    20   13   17 1    
    21   16   18 2    
    22   15   19 1    
    23    1   20 1    
    24    2   21 1    
    25    3   22 1    
    26    4   23 1    
    27    4   24 1    
    28    5   25 1    
    29    6   26 1    
    30    7   27 1    
    31    9   28 1    
    32   13   29 1    
    33   14   30 1    
    34   19   31 1    
    35   19   32 1    
    36   19   33 1    
@<TRIPOS>SUBSTRUCTURE
     1 ****        2 TEMP              0 ****  ****    0 ROOT 
@<TRIPOS>NORMAL
@<TRIPOS>FF_PBC
FORCE_FIELD_SETUP_FEATURE Force Field Setup information
v1.0  0 0.000000 0.000000 0.000000 0.000000 0.000000 0.000000 NONE 0 0 0 0 1 0 0 0 0 0 0 0 0
@<TRIPOS>RENDERING_ATTRS
ANTIALIASED_LINES 
*
