#	Name:			PISM01014
#	Creating user name:	malab
#	Creation time:		Mon Jul 01 22:14:48 2019

#	Modifying user name:	malab
#	Modification time:	Mon Jul 01 22:16:51 2019

@<TRIPOS>MOLECULE
PISM01014
   34    36     1     1     0
SMALL
GAST_HUCK


@<TRIPOS>ATOM
      1 C1         11.4162   15.9488   30.2289 C.ar      1 <1>        -0.0443 
      2 C2         12.0862   17.1610   30.0382 C.ar      1 <1>        -0.0737 
      3 C3         12.2856   17.6552   28.7469 C.ar      1 <1>        -0.0751 
      4 C4         11.8253   16.9249   27.6486 C.ar      1 <1>        -0.0737 
      5 C5         11.1748   15.7027   27.8430 C.ar      1 <1>        -0.0443 
      6 C6         10.9541   15.2068   29.1344 C.ar      1 <1>         0.0403 
      7 N7         10.3045   14.0268   29.3206 N.pl3     1 <1>        -0.3050 
      8 C8         10.7497   13.0870   30.3485 C.3       1 <1>         0.0472 
      9 C9         10.3104   11.6423   30.0003 C.3       1 <1>         0.0561 
     10 N10         8.8502   11.6311   29.8747 N.am      1 <1>        -0.2392 
     11 C11         8.1632   12.7654   29.2559 C.3       1 <1>         0.0561 
     12 C12         9.1639   13.6635   28.4812 C.3       1 <1>         0.0472 
     13 C13         8.1518   10.5564   30.3423 C.2       1 <1>         0.3534 
     14 O14         8.7747    9.5803   30.7314 O.2       1 <1>        -0.3616 
     15 N15         6.8436   10.5164   30.4030 N.pl3     1 <1>        -0.0704 
     16 N16         5.9350   11.4636   30.0778 N.2       1 <1>        -0.0739 
     17 N17         4.6755   11.0493   30.2904 N.2       1 <1>        -0.2236 
     18 C18         4.8635    9.7163   30.8019 C.2       1 <1>         0.0266 
     19 C19         6.1774    9.4787   30.8389 C.2       1 <1>         0.0968 
     20 H1         11.2545   15.5966   31.2411 H         1 <1>         0.0515 
     21 H2         12.4506   17.7210   30.8941 H         1 <1>         0.0583 
     22 H3         12.7959   18.6019   28.5975 H         1 <1>         0.0505 
     23 H4         11.9755   17.3067   26.6432 H         1 <1>         0.0583 
     24 H5         10.8497   15.1405   26.9749 H         1 <1>         0.0515 
     25 H6         10.2900   13.3635   31.3110 H         1 <1>         0.0533 
     26 H7         11.8477   13.1203   30.4515 H         1 <1>         0.0533 
     27 H8         10.6867   10.9803   30.7984 H         1 <1>         0.0542 
     28 H9         10.7655   11.3278   29.0479 H         1 <1>         0.0542 
     29 H10         7.6730   13.3673   30.0383 H         1 <1>         0.0542 
     30 H11         7.4162   12.4306   28.5175 H         1 <1>         0.0542 
     31 H12         8.6321   14.5615   28.1226 H         1 <1>         0.0533 
     32 H13         9.5444   13.1084   27.6084 H         1 <1>         0.0533 
     33 H14         4.0686    9.0342   31.1018 H         1 <1>         0.0560 
     34 H15         6.5947    8.5343   31.1915 H         1 <1>         0.1050 
@<TRIPOS>BOND
     1    2    1 ar   
     2    2    3 ar   
     3    3    4 ar   
     4    4    5 ar   
     5    5    6 ar   
     6    1    6 ar   
     7    6    7 1    
     8    7    8 1    
     9    8    9 1    
    10    9   10 1    
    11   10   11 1    
    12   11   12 1    
    13    7   12 1    
    14   10   13 am   
    15   13   14 2    
    16   13   15 1    
    17   15   16 1    
    18   16   17 2    
    19   17   18 1    
    20   18   19 2    
    21   15   19 1    
    22    1   20 1    
    23    2   21 1    
    24    3   22 1    
    25    4   23 1    
    26    5   24 1    
    27    8   25 1    
    28    8   26 1    
    29    9   27 1    
    30    9   28 1    
    31   11   29 1    
    32   11   30 1    
    33   12   31 1    
    34   12   32 1    
    35   18   33 1    
    36   19   34 1    
@<TRIPOS>SUBSTRUCTURE
     1 ****        2 TEMP              0 ****  ****    0 ROOT 
@<TRIPOS>NORMAL
@<TRIPOS>FF_PBC
FORCE_FIELD_SETUP_FEATURE Force Field Setup information
v1.0  0 0.000000 0.000000 0.000000 0.000000 0.000000 0.000000 NONE 0 0 0 0 1 0 0 0 0 0 0 0 0
