#	Name:			PISM00928
#	Creating user name:	baoopengkun
#	Creation time:		Wed Dec 12 21:30:58 2018

#	Modifying user name:	baoopengkun
#	Modification time:	Wed Dec 12 22:09:18 2018

@<TRIPOS>MOLECULE
PISM00928
  320   320     1     1     0
SMALL
GAST_HUCK


@<TRIPOS>ATOM
      1 C1         -4.5383   45.1380  -51.7527 C.3       1 <1>        -0.0609 
      2 C2         -4.3533   43.6924  -51.2101 C.3       1 <1>        -0.0462 
      3 C3         -5.3985   43.4842  -50.0643 C.3       1 <1>        -0.0609 
      4 C4         -4.7180   42.6697  -52.3324 C.3       1 <1>        -0.0609 
      5 C5         -2.9300   43.4421  -50.5844 C.3       1 <1>        -0.0733 
      6 C6         -1.5724   43.8155  -51.2831 C.3       1 <1>        -0.0537 
      7 C7         -1.3080   45.3572  -51.3550 C.3       1 <1>        -0.0901 
      8 C8         -1.4772   43.2720  -52.7413 C.3       1 <1>        -0.0901 
      9 C9         -0.4665   43.1846  -50.3782 C.ar      1 <1>        -0.0623 
     10 C10        -0.1287   43.7856  -49.1563 C.ar      1 <1>        -0.0461 
     11 C11         0.9091   43.2918  -48.3611 C.ar      1 <1>         0.0013 
     12 C12         1.6183   42.1514  -48.7386 C.ar      1 <1>         0.1291 
     13 C13         1.2602   41.5071  -49.9278 C.ar      1 <1>         0.0013 
     14 C14         0.2231   42.0108  -50.7198 C.ar      1 <1>        -0.0461 
     15 O15         2.6559   41.6960  -47.9121 O.3       1 <1>        -0.2908 
     16 C16         3.3211   40.4409  -48.1418 C.3       1 <1>         0.1029 
     17 C17         4.3442   40.2077  -47.0075 C.3       1 <1>         0.0771 
     18 O18         4.9739   38.9294  -47.2270 O.3       1 <1>        -0.3747 
     19 C19         5.9595   38.5979  -46.2269 C.3       1 <1>         0.0711 
     20 C20         6.5310   37.1991  -46.5498 C.3       1 <1>         0.0711 
     21 O21         7.5146   36.8597  -45.5506 O.3       1 <1>        -0.3752 
     22 C22         8.0867   35.5488  -45.7391 C.3       1 <1>         0.0711 
     23 C23         9.1289   35.2968  -44.6265 C.3       1 <1>         0.0711 
     24 O24         9.6646   33.9689  -44.7996 O.3       1 <1>        -0.3752 
     25 C25        10.6665   33.6243  -43.8209 C.3       1 <1>         0.0711 
     26 C26        11.1338   32.1768  -44.0923 C.3       1 <1>         0.0711 
     27 O27        12.1505   31.8304  -43.1295 O.3       1 <1>        -0.3752 
     28 C28        12.6392   30.4815  -43.2801 C.3       1 <1>         0.0711 
     29 C29        13.7360   30.2304  -42.2213 C.3       1 <1>         0.0711 
     30 O30        14.2021   28.8730  -42.3638 O.3       1 <1>        -0.3752 
     31 C31        15.2564   28.5308  -41.4411 C.3       1 <1>         0.0711 
     32 C32        15.6449   27.0535  -41.6733 C.3       1 <1>         0.0711 
     33 O33        16.7237   26.7123  -40.7785 O.3       1 <1>        -0.3752 
     34 C34        17.1400   25.3358  -40.8910 C.3       1 <1>         0.0711 
     35 C35        18.3233   25.0937  -39.9275 C.3       1 <1>         0.0711 
     36 O36        18.7072   23.7070  -40.0250 O.3       1 <1>        -0.3752 
     37 C37        19.8449   23.3684  -39.2059 C.3       1 <1>         0.0711 
     38 C38        20.1182   21.8560  -39.3637 C.3       1 <1>         0.0711 
     39 O39        21.2881   21.5094  -38.5940 O.3       1 <1>        -0.3752 
     40 C40        21.5917   20.0996  -38.6305 C.3       1 <1>         0.0711 
     41 C41        22.8845   19.8437  -37.8239 C.3       1 <1>         0.0711 
     42 O42        23.1279   18.4224  -37.8080 O.3       1 <1>        -0.3752 
     43 C43        24.3373   18.0543  -37.1141 C.3       1 <1>         0.0711 
     44 C44        24.4313   16.5119  -37.1024 C.3       1 <1>         0.0711 
     45 O45        25.6484   16.1312  -36.4275 O.3       1 <1>        -0.3752 
     46 C46        25.8876   14.7070  -36.3810 C.3       1 <1>         0.0711 
     47 C47        24.9143   13.9471  -35.4462 C.3       1 <1>         0.0711 
     48 O48        25.3949   12.5966  -35.2823 O.3       1 <1>        -0.3752 
     49 C49        24.6002   11.8172  -34.3639 C.3       1 <1>         0.0711 
     50 C50        25.1856   10.3896  -34.2825 C.3       1 <1>         0.0711 
     51 O51        24.4219    9.6447  -33.3120 O.3       1 <1>        -0.3752 
     52 C52        24.8620    8.2794  -33.1619 C.3       1 <1>         0.0711 
     53 C53        24.0125    7.6160  -32.0548 C.3       1 <1>         0.0711 
     54 O54        24.4359    6.2453  -31.9034 O.3       1 <1>        -0.3752 
     55 C55        23.7426    5.5505  -30.8461 C.3       1 <1>         0.0711 
     56 C56        24.2511    4.0924  -30.7941 C.3       1 <1>         0.0711 
     57 O57        23.6031    3.4241  -29.6923 O.3       1 <1>        -0.3752 
     58 C58        23.9807    2.0381  -29.5632 C.3       1 <1>         0.0711 
     59 C59        23.2711    1.4528  -28.3218 C.3       1 <1>         0.0711 
     60 O60        23.6224    0.0587  -28.2055 O.3       1 <1>        -0.3752 
     61 C61        23.0448   -0.5793  -27.0478 C.3       1 <1>         0.0711 
     62 C62        23.4485   -2.0706  -27.0566 C.3       1 <1>         0.0711 
     63 O63        22.8930   -2.7043  -25.8857 O.3       1 <1>        -0.3752 
     64 C64        23.1695   -4.1184  -25.8191 C.3       1 <1>         0.0711 
     65 C65        22.5506   -4.6836  -24.5210 C.3       1 <1>         0.0711 
     66 O66        22.7734   -6.1083  -24.4946 O.3       1 <1>        -0.3752 
     67 C67        22.2443   -6.7485  -23.3153 C.3       1 <1>         0.0711 
     68 C68        22.4970   -8.2682  -23.4342 C.3       1 <1>         0.0711 
     69 O69        21.9730   -8.9209  -22.2591 O.3       1 <1>        -0.3752 
     70 C70        22.1242  -10.3552  -22.2928 C.3       1 <1>         0.0711 
     71 C71        21.5549  -10.9488  -20.9847 C.3       1 <1>         0.0711 
     72 O72        21.6836  -12.3839  -21.0482 O.3       1 <1>        -0.3752 
     73 C73        21.2161  -13.0550  -19.8602 C.3       1 <1>         0.0711 
     74 C74        21.3905  -14.5763  -20.0662 C.3       1 <1>         0.0711 
     75 O75        20.9865  -15.2609  -18.8623 O.3       1 <1>        -0.3752 
     76 C76        21.1092  -16.6955  -18.9591 C.3       1 <1>         0.0711 
     77 C77        20.7362  -17.3251  -17.5983 C.3       1 <1>         0.0711 
     78 O78        20.9105  -18.7514  -17.7129 O.3       1 <1>        -0.3752 
     79 C79        20.5881  -19.4965  -16.5186 C.3       1 <1>         0.0711 
     80 C80        21.4291  -19.1081  -15.2720 C.3       1 <1>         0.0711 
     81 O81        22.8042  -18.9428  -15.6726 O.3       1 <1>        -0.3752 
     82 C82        23.6866  -18.5790  -14.5925 C.3       1 <1>         0.0711 
     83 C83        25.0761  -18.2861  -15.2007 C.3       1 <1>         0.0711 
     84 O84        25.9861  -17.9262  -14.1408 O.3       1 <1>        -0.3752 
     85 C85        27.2827  -17.5180  -14.6240 C.3       1 <1>         0.0711 
     86 C86        28.1959  -17.2183  -13.4144 C.3       1 <1>         0.0711 
     87 O87        29.4488  -16.7047  -13.9112 O.3       1 <1>        -0.3752 
     88 C88        30.4161  -16.4526  -12.8718 C.3       1 <1>         0.0711 
     89 C89        31.6669  -15.8135  -13.5157 C.3       1 <1>         0.0711 
     90 O90        32.6674  -15.6287  -12.4935 O.3       1 <1>        -0.3752 
     91 C91        33.8501  -14.9541  -12.9697 C.3       1 <1>         0.0711 
     92 C92        34.8783  -14.8951  -11.8180 C.3       1 <1>         0.0711 
     93 O93        36.0262  -14.1440  -12.2639 O.3       1 <1>        -0.3752 
     94 C94        37.0881  -14.0965  -11.2889 C.3       1 <1>         0.0711 
     95 C95        38.2172  -13.1910  -11.8297 C.3       1 <1>         0.0711 
     96 O96        39.3054  -13.2110  -10.8837 O.3       1 <1>        -0.3752 
     97 C97        40.3870  -12.3242  -11.2359 C.3       1 <1>         0.0711 
     98 C98        41.5128  -12.4983  -10.1923 C.3       1 <1>         0.0711 
     99 O99        42.5550  -11.5384  -10.4637 O.3       1 <1>        -0.3752 
    100 C100       43.6835  -11.6630   -9.5738 C.3       1 <1>         0.0711 
    101 C101       44.6775  -10.5155   -9.8596 C.3       1 <1>         0.0711 
    102 O102       45.7981  -10.6717   -8.9664 O.3       1 <1>        -0.3752 
    103 C103       46.7445   -9.5855   -9.0242 C.3       1 <1>         0.0711 
    104 C104       47.9019   -9.8723   -8.0290 C.3       1 <1>         0.0711 
    105 O105       47.4784  -10.3818   -6.7458 O.3       1 <1>        -0.3752 
    106 C106       46.5836   -9.5157   -6.0198 C.3       1 <1>         0.0711 
    107 C107       46.2636  -10.1954   -4.6697 C.3       1 <1>         0.0711 
    108 O108       45.3232   -9.3766   -3.9435 O.3       1 <1>        -0.3752 
    109 C109       44.9094   -9.9638   -2.6924 C.3       1 <1>         0.0711 
    110 C110       43.8948   -9.0197   -2.0093 C.3       1 <1>         0.0711 
    111 O111       43.4385   -9.6494   -0.7945 O.3       1 <1>        -0.3752 
    112 C112       42.4702   -8.8627   -0.0708 C.3       1 <1>         0.0711 
    113 C113       42.0318   -9.6603    1.1779 C.3       1 <1>         0.0711 
    114 O114       41.0488   -8.8883    1.8981 O.3       1 <1>        -0.3752 
    115 C115       40.5509   -9.5577    3.0750 C.3       1 <1>         0.0711 
    116 C116       39.5114   -8.6430    3.7604 C.3       1 <1>         0.0711 
    117 O117       38.9999   -9.3244    4.9244 O.3       1 <1>        -0.3752 
    118 C118       38.0204   -8.5543    5.6513 C.3       1 <1>         0.0711 
    119 C119       37.5405   -9.3869    6.8612 C.3       1 <1>         0.0711 
    120 O120       36.5742   -8.6093    7.5975 O.3       1 <1>        -0.3752 
    121 C121       36.0479   -9.2974    8.7509 C.3       1 <1>         0.0711 
    122 C122       35.0466   -8.3613    9.4637 C.3       1 <1>         0.0711 
    123 O123       34.5147   -9.0466   10.6164 O.3       1 <1>        -0.3752 
    124 C124       33.5770   -8.2497   11.3690 C.3       1 <1>         0.0711 
    125 C125       33.0705   -9.0824   12.5679 C.3       1 <1>         0.0711 
    126 O126       32.1485   -8.2734   13.3268 O.3       1 <1>        -0.3752 
    127 C127       31.6058   -8.9529   14.4776 C.3       1 <1>         0.0711 
    128 C128       30.6512   -7.9841   15.2110 C.3       1 <1>         0.0711 
    129 O129       30.1078   -8.6577   16.3651 O.3       1 <1>        -0.3752 
    130 C130       29.2053   -7.8341   17.1321 C.3       1 <1>         0.0711 
    131 C131       28.6901   -8.6551   18.3354 C.3       1 <1>         0.0711 
    132 O132       27.7971   -7.8255   19.1069 O.3       1 <1>        -0.3752 
    133 C133       27.2540   -8.4944   20.2639 C.3       1 <1>         0.0711 
    134 C134       26.3239   -7.5108   21.0091 C.3       1 <1>         0.0706 
    135 O135       25.7814   -8.1780   22.1675 O.3       1 <1>        -0.3807 
    136 C136       24.8966   -7.3449   22.9409 C.3       1 <1>         0.0365 
    137 H1         -5.5979   45.3363  -51.9752 H         1 <1>         0.0235 
    138 H2         -3.9853   45.2822  -52.6894 H         1 <1>         0.0235 
    139 H3         -4.1997   45.8770  -51.0112 H         1 <1>         0.0235 
    140 H4         -5.2545   44.2202  -49.2581 H         1 <1>         0.0235 
    141 H5         -5.3031   42.4764  -49.6311 H         1 <1>         0.0235 
    142 H6         -6.4308   43.5966  -50.4301 H         1 <1>         0.0235 
    143 H7         -4.1357   42.8166  -53.2483 H         1 <1>         0.0235 
    144 H8         -5.7761   42.7744  -52.6175 H         1 <1>         0.0235 
    145 H9         -4.5626   41.6367  -51.9859 H         1 <1>         0.0235 
    146 H10        -2.8824   42.3641  -50.3598 H         1 <1>         0.0159 
    147 H11        -2.9082   43.9630  -49.6150 H         1 <1>         0.0159 
    148 H12        -1.8089   45.8457  -52.1998 H         1 <1>         0.0117 
    149 H13        -0.2294   45.5345  -51.4890 H         1 <1>         0.0117 
    150 H14        -1.6345   45.8876  -50.4498 H         1 <1>         0.0117 
    151 H15        -2.0885   43.8617  -53.4373 H         1 <1>         0.0117 
    152 H16        -1.8121   42.2264  -52.8065 H         1 <1>         0.0117 
    153 H17        -0.4390   43.3424  -53.1015 H         1 <1>         0.0117 
    154 H18        -0.6691   44.6495  -48.7908 H         1 <1>         0.0823 
    155 H19         1.1712   43.7944  -47.4358 H         1 <1>         0.0651 
    156 H20         1.7722   40.6117  -50.2588 H         1 <1>         0.0651 
    157 H21        -0.0281   41.4482  -51.6093 H         1 <1>         0.0823 
    158 H22         3.8640   40.4488  -49.1007 H         1 <1>         0.0656 
    159 H23         2.5964   39.6104  -48.1335 H         1 <1>         0.0656 
    160 H24         3.8116   40.2234  -46.0423 H         1 <1>         0.0588 
    161 H25         5.0845   41.0246  -47.0198 H         1 <1>         0.0588 
    162 H26         5.5110   38.5675  -45.2202 H         1 <1>         0.0583 
    163 H27         6.7855   39.3279  -46.2272 H         1 <1>         0.0583 
    164 H28         6.9825   37.2241  -47.5552 H         1 <1>         0.0583 
    165 H29         5.6996   36.4751  -46.5508 H         1 <1>         0.0583 
    166 H30         8.5899   35.4704  -46.7168 H         1 <1>         0.0583 
    167 H31         7.3109   34.7683  -45.6744 H         1 <1>         0.0583 
    168 H32         8.6311   35.3964  -43.6481 H         1 <1>         0.0583 
    169 H33         9.9201   36.0606  -44.7037 H         1 <1>         0.0583 
    170 H34        10.2597   33.6758  -42.7975 H         1 <1>         0.0583 
    171 H35        11.5366   34.2973  -43.8931 H         1 <1>         0.0583 
    172 H36        11.5292   32.1213  -45.1198 H         1 <1>         0.0583 
    173 H37        10.2623   31.5067  -44.0096 H         1 <1>         0.0583 
    174 H38        13.0761   30.3256  -44.2802 H         1 <1>         0.0583 
    175 H39        11.8289   29.7498  -43.1277 H         1 <1>         0.0583 
    176 H40        13.3062   30.3965  -41.2199 H         1 <1>         0.0583 
    177 H41        14.5530   30.9527  -42.3833 H         1 <1>         0.0583 
    178 H42        14.9267   28.6479  -40.3957 H         1 <1>         0.0583 
    179 H43        16.1456   29.1606  -41.6074 H         1 <1>         0.0583 
    180 H44        15.9540   26.9321  -42.7245 H         1 <1>         0.0583 
    181 H45        14.7580   26.4253  -41.4882 H         1 <1>         0.0583 
    182 H46        17.4718   25.1015  -41.9159 H         1 <1>         0.0583 
    183 H47        16.3179   24.6538  -40.6185 H         1 <1>         0.0583 
    184 H48        18.0042   25.3419  -38.9021 H         1 <1>         0.0583 
    185 H49        19.1524   25.7612  -40.2148 H         1 <1>         0.0583 
    186 H50        19.6526   23.5828  -38.1418 H         1 <1>         0.0583 
    187 H51        20.7398   23.9263  -39.5265 H         1 <1>         0.0583 
    188 H52        20.2759   21.6358  -40.4323 H         1 <1>         0.0583 
    189 H53        19.2299   21.3042  -39.0144 H         1 <1>         0.0583 
    190 H54        21.7501   19.7493  -39.6638 H         1 <1>         0.0583 
    191 H55        20.7744   19.5144  -38.1780 H         1 <1>         0.0583 
    192 H56        22.7452   20.2288  -36.8005 H         1 <1>         0.0583 
    193 H57        23.7146   20.3900  -38.3012 H         1 <1>         0.0583 
    194 H58        24.3276   18.4129  -36.0716 H         1 <1>         0.0583 
    195 H59        25.2241   18.4649  -37.6242 H         1 <1>         0.0583 
    196 H60        24.4276   16.1520  -38.1442 H         1 <1>         0.0583 
    197 H61        23.5344   16.1329  -36.5895 H         1 <1>         0.0583 
    198 H62        26.9000   14.5859  -35.9646 H         1 <1>         0.0583 
    199 H63        25.8853   14.2568  -37.3869 H         1 <1>         0.0583 
    200 H64        23.9028   13.9242  -35.8799 H         1 <1>         0.0583 
    201 H65        24.8830   14.4771  -34.4801 H         1 <1>         0.0583 
    202 H66        23.5522   11.7471  -34.6987 H         1 <1>         0.0583 
    203 H67        24.6223   12.2611  -33.3550 H         1 <1>         0.0583 
    204 H68        26.2434   10.4593  -33.9803 H         1 <1>         0.0583 
    205 H69        25.1295    9.9253  -35.2808 H         1 <1>         0.0583 
    206 H70        25.9224    8.2312  -32.8640 H         1 <1>         0.0583 
    207 H71        24.7291    7.7170  -34.1005 H         1 <1>         0.0583 
    208 H72        22.9498    7.6689  -32.3427 H         1 <1>         0.0583 
    209 H73        24.1569    8.1837  -31.1208 H         1 <1>         0.0583 
    210 H74        22.6542    5.5376  -31.0211 H         1 <1>         0.0583 
    211 H75        23.9407    6.0250  -29.8710 H         1 <1>         0.0583 
    212 H76        25.3447    4.1054  -30.6557 H         1 <1>         0.0583 
    213 H77        24.0188    3.6028  -31.7541 H         1 <1>         0.0583 
    214 H78        25.0693    1.9301  -29.4267 H         1 <1>         0.0583 
    215 H79        23.6742    1.4632  -30.4524 H         1 <1>         0.0583 
    216 H80        22.1826    1.5745  -28.4465 H         1 <1>         0.0583 
    217 H81        23.5938    2.0215  -27.4342 H         1 <1>         0.0583 
    218 H82        21.9443   -0.5148  -27.0630 H         1 <1>         0.0583 
    219 H83        23.4159   -0.1177  -26.1182 H         1 <1>         0.0583 
    220 H84        24.5486   -2.1404  -27.0566 H         1 <1>         0.0583 
    221 H85        23.0625   -2.5302  -27.9814 H         1 <1>         0.0583 
    222 H86        24.2543   -4.3144  -25.8069 H         1 <1>         0.0583 
    223 H87        22.7222   -4.6450  -26.6781 H         1 <1>         0.0583 
    224 H88        21.4723   -4.4544  -24.5176 H         1 <1>         0.0583 
    225 H89        23.0232   -4.1879  -23.6572 H         1 <1>         0.0583 
    226 H90        21.1586   -6.5816  -23.2230 H         1 <1>         0.0583 
    227 H91        22.7415   -6.3738  -22.4056 H         1 <1>         0.0583 
    228 H92        23.5818   -8.4397  -23.5296 H         1 <1>         0.0583 
    229 H93        21.9977   -8.6325  -24.3471 H         1 <1>         0.0583 
    230 H94        23.1857  -10.6417  -22.3743 H         1 <1>         0.0583 
    231 H95        21.5725  -10.7886  -23.1431 H         1 <1>         0.0583 
    232 H96        20.4975  -10.6522  -20.8902 H         1 <1>         0.0583 
    233 H97        22.1198  -10.5327  -20.1344 H         1 <1>         0.0583 
    234 H98        20.1511  -12.8426  -19.6711 H         1 <1>         0.0583 
    235 H99        21.8033  -12.7487  -18.9790 H         1 <1>         0.0583 
    236 H100       22.4509  -14.7758  -20.2926 H         1 <1>         0.0583 
    237 H101       20.7780  -14.8890  -20.9277 H         1 <1>         0.0583 
    238 H102       22.1449  -16.9893  -19.1983 H         1 <1>         0.0583 
    239 H103       20.4377  -17.0977  -19.7350 H         1 <1>         0.0583 
    240 H104       19.6948  -17.0659  -17.3482 H         1 <1>         0.0583 
    241 H105       21.4095  -16.8901  -16.8431 H         1 <1>         0.0583 
    242 H106       20.8153  -20.5442  -16.7707 H         1 <1>         0.0583 
    243 H107       19.5107  -19.4264  -16.2962 H         1 <1>         0.0583 
    244 H108       21.3354  -19.8961  -14.5062 H         1 <1>         0.0583 
    245 H109       21.0374  -18.1699  -14.8472 H         1 <1>         0.0583 
    246 H110       23.7702  -19.3980  -13.8600 H         1 <1>         0.0583 
    247 H111       23.3406  -17.6691  -14.0749 H         1 <1>         0.0583 
    248 H112       24.9626  -17.4650  -15.9281 H         1 <1>         0.0583 
    249 H113       25.4314  -19.1840  -15.7321 H         1 <1>         0.0583 
    250 H114       27.1976  -16.6028  -15.2326 H         1 <1>         0.0583 
    251 H115       27.7539  -18.3074  -15.2327 H         1 <1>         0.0583 
    252 H116       28.3369  -18.1485  -12.8398 H         1 <1>         0.0583 
    253 H117       27.6993  -16.4735  -12.7713 H         1 <1>         0.0583 
    254 H118       30.7092  -17.3932  -12.3776 H         1 <1>         0.0583 
    255 H119       30.0219  -15.7580  -12.1118 H         1 <1>         0.0583 
    256 H120       31.3720  -14.8535  -13.9706 H         1 <1>         0.0583 
    257 H121       32.0407  -16.4828  -14.3078 H         1 <1>         0.0583 
    258 H122       33.6099  -13.9253  -13.2839 H         1 <1>         0.0583 
    259 H123       34.3069  -15.4886  -13.8189 H         1 <1>         0.0583 
    260 H124       35.1521  -15.9267  -11.5415 H         1 <1>         0.0583 
    261 H125       34.4090  -14.4062  -10.9487 H         1 <1>         0.0583 
    262 H126       37.4959  -15.1050  -11.1106 H         1 <1>         0.0583 
    263 H127       36.7377  -13.6798  -10.3302 H         1 <1>         0.0583 
    264 H128       37.8148  -12.1733  -11.9628 H         1 <1>         0.0583 
    265 H129       38.5465  -13.5753  -12.8088 H         1 <1>         0.0583 
    266 H130       40.0487  -11.2752  -11.2211 H         1 <1>         0.0583 
    267 H131       40.7928  -12.5543  -12.2347 H         1 <1>         0.0583 
    268 H132       41.8904  -13.5324  -10.2524 H         1 <1>         0.0583 
    269 H133       41.0876  -12.3329   -9.1887 H         1 <1>         0.0583 
    270 H134       44.1957  -12.6271   -9.7258 H         1 <1>         0.0583 
    271 H135       43.3728  -11.5889   -8.5183 H         1 <1>         0.0583 
    272 H136       44.1545   -9.5596   -9.6911 H         1 <1>         0.0583 
    273 H137       45.0032  -10.5648  -10.9112 H         1 <1>         0.0583 
    274 H138       46.2563   -8.6365   -8.7500 H         1 <1>         0.0583 
    275 H139       47.1559   -9.4777  -10.0417 H         1 <1>         0.0583 
    276 H140       48.5315   -8.9767   -7.9006 H         1 <1>         0.0583 
    277 H141       48.5296  -10.6702   -8.4558 H         1 <1>         0.0583 
    278 H142       45.6288   -9.3795   -6.5515 H         1 <1>         0.0583 
    279 H143       47.0390   -8.5298   -5.8332 H         1 <1>         0.0583 
    280 H144       47.1998  -10.3213   -4.1019 H         1 <1>         0.0583 
    281 H145       45.8395  -11.1912   -4.8810 H         1 <1>         0.0583 
    282 H146       45.7684  -10.1112   -2.0175 H         1 <1>         0.0583 
    283 H147       44.4172  -10.9361   -2.8593 H         1 <1>         0.0583 
    284 H148       43.0556   -8.8481   -2.7034 H         1 <1>         0.0583 
    285 H149       44.3880   -8.0563   -1.8006 H         1 <1>         0.0583 
    286 H150       41.5786   -8.6632   -0.6876 H         1 <1>         0.0583 
    287 H151       42.9026   -7.9017    0.2526 H         1 <1>         0.0583 
    288 H152       42.9186   -9.8548    1.8032 H         1 <1>         0.0583 
    289 H153       41.6121  -10.6240    0.8456 H         1 <1>         0.0583 
    290 H154       41.3648   -9.7638    3.7893 H         1 <1>         0.0583 
    291 H155       40.0598  -10.5087    2.8107 H         1 <1>         0.0583 
    292 H156       38.7036   -8.4281    3.0417 H         1 <1>         0.0583 
    293 H157       40.0035   -7.6962    4.0372 H         1 <1>         0.0583 
    294 H158       37.1490   -8.3199    5.0182 H         1 <1>         0.0583 
    295 H159       38.4551   -7.6117    6.0223 H         1 <1>         0.0583 
    296 H160       38.4132   -9.6301    7.4894 H         1 <1>         0.0583 
    297 H161       37.0964  -10.3249    6.4895 H         1 <1>         0.0583 
    298 H162       36.8510   -9.5574    9.4599 H         1 <1>         0.0583 
    299 H163       35.5210  -10.2195    8.4554 H         1 <1>         0.0583 
    300 H164       34.2441   -8.0980    8.7552 H         1 <1>         0.0583 
    301 H165       35.5772   -7.4410    9.7586 H         1 <1>         0.0583 
    302 H166       32.7115   -7.9630   10.7493 H         1 <1>         0.0583 
    303 H167       34.0570   -7.3354   11.7551 H         1 <1>         0.0583 
    304 H168       33.9368   -9.3774   13.1825 H         1 <1>         0.0583 
    305 H169       32.5795   -9.9917   12.1841 H         1 <1>         0.0583 
    306 H170       32.4049   -9.2537   15.1749 H         1 <1>         0.0583 
    307 H171       31.0383   -9.8490   14.1775 H         1 <1>         0.0583 
    308 H172       29.8512   -7.6833   14.5148 H         1 <1>         0.0583 
    309 H173       31.2213   -7.0882   15.5070 H         1 <1>         0.0583 
    310 H174       28.3409   -7.5200   16.5243 H         1 <1>         0.0583 
    311 H175       29.7175   -6.9357   17.5141 H         1 <1>         0.0583 
    312 H176       29.5554   -8.9740   18.9395 H         1 <1>         0.0583 
    313 H177       28.1715   -9.5504   17.9552 H         1 <1>         0.0583 
    314 H178       28.0551   -8.8098   20.9523 H         1 <1>         0.0583 
    315 H179       26.6672   -9.3802   19.9705 H         1 <1>         0.0583 
    316 H180       25.5217   -7.1955   20.3218 H         1 <1>         0.0582 
    317 H181       26.9112   -6.6248   21.3014 H         1 <1>         0.0582 
    318 H182       25.4200   -6.4571   23.3287 H         1 <1>         0.0524 
    319 H183       24.5367   -7.9369   23.7954 H         1 <1>         0.0524 
    320 H184       24.0258   -7.0264   22.3469 H         1 <1>         0.0524 
@<TRIPOS>BOND
     1    2    1 1    
     2    2    3 1    
     3    2    4 1    
     4    2    5 1    
     5    5    6 1    
     6    6    7 1    
     7    6    8 1    
     8    6    9 1    
     9    9   10 ar   
    10   10   11 ar   
    11   11   12 ar   
    12   12   13 ar   
    13   13   14 ar   
    14    9   14 ar   
    15   12   15 1    
    16   15   16 1    
    17   16   17 1    
    18   17   18 1    
    19   18   19 1    
    20   19   20 1    
    21   20   21 1    
    22   21   22 1    
    23   22   23 1    
    24   23   24 1    
    25   24   25 1    
    26   25   26 1    
    27   26   27 1    
    28   27   28 1    
    29   28   29 1    
    30   29   30 1    
    31   30   31 1    
    32   31   32 1    
    33   32   33 1    
    34   33   34 1    
    35   34   35 1    
    36   35   36 1    
    37   36   37 1    
    38   37   38 1    
    39   38   39 1    
    40   39   40 1    
    41   40   41 1    
    42   41   42 1    
    43   42   43 1    
    44   43   44 1    
    45   44   45 1    
    46   45   46 1    
    47   46   47 1    
    48   47   48 1    
    49   48   49 1    
    50   49   50 1    
    51   50   51 1    
    52   51   52 1    
    53   52   53 1    
    54   53   54 1    
    55   54   55 1    
    56   55   56 1    
    57   56   57 1    
    58   57   58 1    
    59   58   59 1    
    60   59   60 1    
    61   60   61 1    
    62   61   62 1    
    63   62   63 1    
    64   63   64 1    
    65   64   65 1    
    66   65   66 1    
    67   66   67 1    
    68   67   68 1    
    69   68   69 1    
    70   69   70 1    
    71   70   71 1    
    72   71   72 1    
    73   72   73 1    
    74   73   74 1    
    75   74   75 1    
    76   75   76 1    
    77   76   77 1    
    78   77   78 1    
    79   78   79 1    
    80   79   80 1    
    81   80   81 1    
    82   81   82 1    
    83   82   83 1    
    84   83   84 1    
    85   84   85 1    
    86   85   86 1    
    87   86   87 1    
    88   87   88 1    
    89   88   89 1    
    90   89   90 1    
    91   90   91 1    
    92   91   92 1    
    93   92   93 1    
    94   93   94 1    
    95   94   95 1    
    96   95   96 1    
    97   96   97 1    
    98   97   98 1    
    99   98   99 1    
   100   99  100 1    
   101  100  101 1    
   102  101  102 1    
   103  102  103 1    
   104  103  104 1    
   105  104  105 1    
   106  105  106 1    
   107  106  107 1    
   108  107  108 1    
   109  108  109 1    
   110  109  110 1    
   111  110  111 1    
   112  111  112 1    
   113  112  113 1    
   114  113  114 1    
   115  114  115 1    
   116  115  116 1    
   117  116  117 1    
   118  117  118 1    
   119  118  119 1    
   120  119  120 1    
   121  120  121 1    
   122  121  122 1    
   123  122  123 1    
   124  123  124 1    
   125  124  125 1    
   126  125  126 1    
   127  126  127 1    
   128  127  128 1    
   129  128  129 1    
   130  129  130 1    
   131  130  131 1    
   132  131  132 1    
   133  132  133 1    
   134  133  134 1    
   135  134  135 1    
   136  135  136 1    
   137    1  137 1    
   138    1  138 1    
   139    1  139 1    
   140    3  140 1    
   141    3  141 1    
   142    3  142 1    
   143    4  143 1    
   144    4  144 1    
   145    4  145 1    
   146    5  146 1    
   147    5  147 1    
   148    7  148 1    
   149    7  149 1    
   150    7  150 1    
   151    8  151 1    
   152    8  152 1    
   153    8  153 1    
   154   10  154 1    
   155   11  155 1    
   156   13  156 1    
   157   14  157 1    
   158   16  158 1    
   159   16  159 1    
   160   17  160 1    
   161   17  161 1    
   162   19  162 1    
   163   19  163 1    
   164   20  164 1    
   165   20  165 1    
   166   22  166 1    
   167   22  167 1    
   168   23  168 1    
   169   23  169 1    
   170   25  170 1    
   171   25  171 1    
   172   26  172 1    
   173   26  173 1    
   174   28  174 1    
   175   28  175 1    
   176   29  176 1    
   177   29  177 1    
   178   31  178 1    
   179   31  179 1    
   180   32  180 1    
   181   32  181 1    
   182   34  182 1    
   183   34  183 1    
   184   35  184 1    
   185   35  185 1    
   186   37  186 1    
   187   37  187 1    
   188   38  188 1    
   189   38  189 1    
   190   40  190 1    
   191   40  191 1    
   192   41  192 1    
   193   41  193 1    
   194   43  194 1    
   195   43  195 1    
   196   44  196 1    
   197   44  197 1    
   198   46  198 1    
   199   46  199 1    
   200   47  200 1    
   201   47  201 1    
   202   49  202 1    
   203   49  203 1    
   204   50  204 1    
   205   50  205 1    
   206   52  206 1    
   207   52  207 1    
   208   53  208 1    
   209   53  209 1    
   210   55  210 1    
   211   55  211 1    
   212   56  212 1    
   213   56  213 1    
   214   58  214 1    
   215   58  215 1    
   216   59  216 1    
   217   59  217 1    
   218   61  218 1    
   219   61  219 1    
   220   62  220 1    
   221   62  221 1    
   222   64  222 1    
   223   64  223 1    
   224   65  224 1    
   225   65  225 1    
   226   67  226 1    
   227   67  227 1    
   228   68  228 1    
   229   68  229 1    
   230   70  230 1    
   231   70  231 1    
   232   71  232 1    
   233   71  233 1    
   234   73  234 1    
   235   73  235 1    
   236   74  236 1    
   237   74  237 1    
   238   76  238 1    
   239   76  239 1    
   240   77  240 1    
   241   77  241 1    
   242   79  242 1    
   243   79  243 1    
   244   80  244 1    
   245   80  245 1    
   246   82  246 1    
   247   82  247 1    
   248   83  248 1    
   249   83  249 1    
   250   85  250 1    
   251   85  251 1    
   252   86  252 1    
   253   86  253 1    
   254   88  254 1    
   255   88  255 1    
   256   89  256 1    
   257   89  257 1    
   258   91  258 1    
   259   91  259 1    
   260   92  260 1    
   261   92  261 1    
   262   94  262 1    
   263   94  263 1    
   264   95  264 1    
   265   95  265 1    
   266   97  266 1    
   267   97  267 1    
   268   98  268 1    
   269   98  269 1    
   270  100  270 1    
   271  100  271 1    
   272  101  272 1    
   273  101  273 1    
   274  103  274 1    
   275  103  275 1    
   276  104  276 1    
   277  104  277 1    
   278  106  278 1    
   279  106  279 1    
   280  107  280 1    
   281  107  281 1    
   282  109  282 1    
   283  109  283 1    
   284  110  284 1    
   285  110  285 1    
   286  112  286 1    
   287  112  287 1    
   288  113  288 1    
   289  113  289 1    
   290  115  290 1    
   291  115  291 1    
   292  116  292 1    
   293  116  293 1    
   294  118  294 1    
   295  118  295 1    
   296  119  296 1    
   297  119  297 1    
   298  121  298 1    
   299  121  299 1    
   300  122  300 1    
   301  122  301 1    
   302  124  302 1    
   303  124  303 1    
   304  125  304 1    
   305  125  305 1    
   306  127  306 1    
   307  127  307 1    
   308  128  308 1    
   309  128  309 1    
   310  130  310 1    
   311  130  311 1    
   312  131  312 1    
   313  131  313 1    
   314  133  314 1    
   315  133  315 1    
   316  134  316 1    
   317  134  317 1    
   318  136  318 1    
   319  136  319 1    
   320  136  320 1    
@<TRIPOS>SUBSTRUCTURE
     1 ****        2 TEMP              0 ****  ****    0 ROOT 
@<TRIPOS>NORMAL
@<TRIPOS>FF_PBC
FORCE_FIELD_SETUP_FEATURE Force Field Setup information
v1.0  0 0.000000 0.000000 0.000000 0.000000 0.000000 0.000000 NONE 0 0 0 0 1 0 0 0 0 0 0 0 0
