#	Name:			PISM00841.1
#	Creating user name:	baoopengkun
#	Creation time:		Thu Dec 13 14:40:19 2018

#	Modifying user name:	baoopengkun
#	Modification time:	Thu Dec 13 14:48:49 2018

@<TRIPOS>MOLECULE
PISM00841.1
   27    28     1     1     0
SMALL
GAST_HUCK


@<TRIPOS>ATOM
      1 C1         -8.0971   16.8990   -2.4370 C.ar      1 <1>         0.0020 
      2 C2         -9.0908   16.1636   -3.0901 C.ar      1 <1>        -0.0383 
      3 C3        -10.4350   16.5364   -2.9717 C.ar      1 <1>         0.0326 
      4 C4        -10.7769   17.6313   -2.1701 C.ar      1 <1>        -0.0383 
      5 C5         -9.7843   18.3642   -1.5128 C.ar      1 <1>         0.0020 
      6 C6         -8.4410   18.0098   -1.6627 C.ar      1 <1>         0.1361 
      7 C7        -11.5413   15.7676   -3.7036 C.3       1 <1>         0.3627 
      8 O8         -7.4418   18.7575   -1.0420 O.3       1 <1>        -0.2451 
      9 C9         -7.1401   20.0049   -1.6858 C.3       1 <1>         0.2442 
     10 C10        -6.6128   19.7690   -3.0823 C.2       1 <1>        -0.0003 
     11 C11        -5.3424   20.1570   -3.1734 C.2       1 <1>         0.0293 
     12 C12        -5.0455   20.6678   -1.8405 C.2       1 <1>         0.2496 
     13 O13        -6.0479   20.6164   -0.9720 O.3       1 <1>        -0.2298 
     14 C14        -4.4273   20.1043   -4.3661 C.3       1 <1>        -0.0323 
     15 O15        -3.9536   21.1191   -1.5416 O.2       1 <1>        -0.3691 
     16 F16       -12.4093   16.6491   -4.2690 F         1 <1>        -0.2324 
     17 F17       -12.2110   14.9975   -2.8060 F         1 <1>        -0.2324 
     18 F18       -11.0290   14.9711   -4.6803 F         1 <1>        -0.2324 
     19 H1         -7.0544   16.6122   -2.5286 H         1 <1>         0.0651 
     20 H2         -8.8111   15.3019   -3.6882 H         1 <1>         0.0825 
     21 H3        -11.8195   17.9135   -2.0563 H         1 <1>         0.0825 
     22 H4        -10.0544   19.2069   -0.8846 H         1 <1>         0.0651 
     23 H5         -8.0022   20.6922   -1.6900 H         1 <1>         0.1218 
     24 H6         -7.1901   19.3378   -3.8994 H         1 <1>         0.0706 
     25 H7         -3.7665   20.9841   -4.3664 H         1 <1>         0.0347 
     26 H8         -5.0063   20.0935   -5.3018 H         1 <1>         0.0347 
     27 H9         -3.8118   19.1942   -4.3123 H         1 <1>         0.0347 
@<TRIPOS>BOND
     1    2    1 ar   
     2    2    3 ar   
     3    3    4 ar   
     4    4    5 ar   
     5    5    6 ar   
     6    1    6 ar   
     7    3    7 1    
     8    6    8 1    
     9    8    9 1    
    10    9   10 1    
    11   10   11 2    
    12   11   12 1    
    13   12   13 1    
    14    9   13 1    
    15   11   14 1    
    16   12   15 2    
    17    7   16 1    
    18    7   17 1    
    19    7   18 1    
    20    1   19 1    
    21    2   20 1    
    22    4   21 1    
    23    5   22 1    
    24    9   23 1    
    25   10   24 1    
    26   14   25 1    
    27   14   26 1    
    28   14   27 1    
@<TRIPOS>SUBSTRUCTURE
     1 ****        2 TEMP              0 ****  ****    0 ROOT 
@<TRIPOS>NORMAL
@<TRIPOS>FF_PBC
FORCE_FIELD_SETUP_FEATURE Force Field Setup information
v1.0  0 0.000000 0.000000 0.000000 0.000000 0.000000 0.000000 NONE 0 0 0 0 1 0 0 0 0 0 0 0 0
