#	Name:			PISM00723
#	Creating user name:	baoopengkun
#	Creation time:		Sun Jan 20 21:58:07 2019

#	Modifying user name:	baoopengkun
#	Modification time:	Sun Jan 20 21:59:15 2019

@<TRIPOS>MOLECULE
PISM00723
   86    90     1     1     0
SMALL
GAST_HUCK
INVALID_CHARGES

@<TRIPOS>ATOM
      1 C1         -3.8388    4.8791   -3.7697 C.3       1 <1>        -0.0163 
      2 C2         -4.7923    3.6655   -3.9638 C.3       1 <1>         0.0819 
      3 C3         -4.6762    2.6659   -2.7780 C.3       1 <1>         0.0835 
      4 C4         -4.9103    3.3791   -1.4209 C.3       1 <1>        -0.0028 
      5 C5         -3.9005    4.5529   -1.2739 C.3       1 <1>         0.0681 
      6 C6         -4.0275    5.6277   -2.4102 C.3       1 <1>        -0.0055 
      7 C7         -2.9492    6.7684   -2.1997 C.3       1 <1>        -0.0276 
      8 C8         -1.5875    6.2454   -1.6369 C.3       1 <1>        -0.0063 
      9 C9         -1.6935    5.9236   -0.1047 C.3       1 <1>         0.0801 
     10 O10        -2.9917    6.0067    0.5313 O.3       1 <1>        -0.2763 
     11 C11        -3.9908    5.2362    0.0662 C.2       1 <1>         0.2374 
     12 O12        -4.9981    5.1129    0.7421 O.2       1 <1>        -0.3701 
     13 C13        -2.7019    7.7010   -3.4262 C.3       1 <1>        -0.0487 
     14 C14        -1.8684    8.9680   -3.0356 C.3       1 <1>        -0.0468 
     15 C15        -0.6733    8.6963   -2.0516 C.3       1 <1>        -0.0257 
     16 C16        -0.3984    7.1680   -2.0760 C.3       1 <1>        -0.0298 
     17 C17         0.9901    6.9686   -1.4236 C.3       1 <1>        -0.0491 
     18 C18         1.7444    8.2762   -1.8001 C.3       1 <1>        -0.0491 
     19 C19         0.7315    9.2280   -2.5188 C.3       1 <1>        -0.0304 
     20 O20        -4.4198    3.0148   -5.1949 O.3       1 <1>        -0.3892 
     21 O21        -3.3622    2.0768   -2.7537 O.3       1 <1>        -0.3891 
     22 C22         5.4464   11.8135   -1.3664 C.3       1 <1>        -0.0360 
     23 C23        -5.4451    6.3003   -2.3718 C.3       1 <1>        -0.0568 
     24 C24        -0.9959    9.2184   -0.6146 C.3       1 <1>        -0.0590 
     25 C25         1.0927   10.7488   -2.3325 C.3       1 <1>        -0.0120 
     26 C26         2.5473   11.0757   -2.8270 C.3       1 <1>         0.0841 
     27 C27         3.0921   12.4809   -2.3966 C.3       1 <1>         0.0841 
     28 C28         4.6550   12.5577   -2.5008 C.3       1 <1>        -0.0125 
     29 C29         7.6089   11.2810   -0.3942 C.3       1 <1>        -0.0528 
     30 C30         5.5684   12.5384    0.0121 C.3       1 <1>        -0.0499 
     31 C31         6.9058   11.4364   -1.7578 C.3       1 <1>        -0.0499 
     32 C32         0.0656   11.6860   -3.0289 C.3       1 <1>        -0.0597 
     33 O33         2.6656   11.0374   -4.2646 O.3       1 <1>        -0.3890 
     34 O34         2.4965   13.4922   -3.2306 O.3       1 <1>        -0.3890 
     35 C35         5.1320   14.0334   -2.6490 C.3       1 <1>        -0.0597 
     36 C36         7.0824   12.5227    0.3542 C.3       1 <1>        -0.0528 
     37 H1         -4.0108    5.5664   -4.6125 H         1 <1>         0.0000 
     38 H2         -2.8067    4.5062   -3.8488 H         1 <1>         0.0000 
     39 H3         -5.8361    4.0050   -4.0676 H         1 <1>         0.0000 
     40 H4         -5.4256    1.8654   -2.9143 H         1 <1>         0.0000 
     41 H5         -4.7518    2.6573   -0.6013 H         1 <1>         0.0000 
     42 H6         -5.9549    3.7083   -1.3339 H         1 <1>         0.0000 
     43 H7         -2.9407    4.0232   -1.3050 H         1 <1>         0.0000 
     44 H8         -3.3535    7.4543   -1.4423 H         1 <1>         0.0000 
     45 H9         -1.3356    5.3023   -2.1487 H         1 <1>         0.0000 
     46 H10        -1.1496    6.6691    0.4834 H         1 <1>         0.0000 
     47 H11        -1.2304    4.9513    0.1325 H         1 <1>         0.0000 
     48 H12        -3.6439    8.0579   -3.8684 H         1 <1>         0.0000 
     49 H13        -2.1886    7.1328   -4.2173 H         1 <1>         0.0000 
     50 H14        -2.5635    9.6889   -2.5750 H         1 <1>         0.0000 
     51 H15        -1.5134    9.4195   -3.9756 H         1 <1>         0.0000 
     52 H16        -0.1914    6.9269   -3.1369 H         1 <1>         0.0000 
     53 H17         1.4906    6.0601   -1.8009 H         1 <1>         0.0000 
     54 H18         0.9416    6.8755   -0.3303 H         1 <1>         0.0000 
     55 H19         2.5984    8.0372   -2.4566 H         1 <1>         0.0000 
     56 H20         2.1400    8.7458   -0.8839 H         1 <1>         0.0000 
     57 H21         0.7955    9.0162   -3.5979 H         1 <1>         0.0000 
     58 H22        -4.9644    2.2606   -5.3966 H         1 <1>         0.0000 
     59 H23        -3.2555    1.4139   -2.0799 H         1 <1>         0.0000 
     60 H24         4.9762   10.8420   -1.1570 H         1 <1>         0.0000 
     61 H25        -5.5590    7.0448   -3.1701 H         1 <1>         0.0000 
     62 H26        -5.6109    6.8120   -1.4118 H         1 <1>         0.0000 
     63 H27        -6.2816    5.6055   -2.4967 H         1 <1>         0.0000 
     64 H28        -1.1421   10.3067   -0.6165 H         1 <1>         0.0000 
     65 H29        -0.1891    8.9965    0.0968 H         1 <1>         0.0000 
     66 H30        -1.9249    8.7905   -0.2217 H         1 <1>         0.0000 
     67 H31         1.0715   10.9619   -1.2517 H         1 <1>         0.0000 
     68 H32         3.2255   10.3183   -2.4202 H         1 <1>         0.0000 
     69 H33         2.8203   12.7040   -1.3530 H         1 <1>         0.0000 
     70 H34         4.9330   12.0537   -3.4429 H         1 <1>         0.0000 
     71 H35         8.7071   11.2565   -0.4743 H         1 <1>         0.0000 
     72 H36         7.2663   10.3604    0.1082 H         1 <1>         0.0000 
     73 H37         5.0307   11.9715    0.7889 H         1 <1>         0.0000 
     74 H38         5.1803   13.5643    0.0400 H         1 <1>         0.0000 
     75 H39         6.9675   10.5164   -2.3612 H         1 <1>         0.0000 
     76 H40         7.4131   12.2357   -2.3127 H         1 <1>         0.0000 
     77 H41         0.1140   11.5690   -4.1217 H         1 <1>         0.0000 
     78 H42         0.2588   12.7373   -2.7762 H         1 <1>         0.0000 
     79 H43        -0.9604   11.4824   -2.7041 H         1 <1>         0.0000 
     80 H44         2.4938   10.1857   -4.6507 H         1 <1>         0.0000 
     81 H45         2.6564   13.3352   -4.1562 H         1 <1>         0.0000 
     82 H46         6.2214   14.1549   -2.5861 H         1 <1>         0.0000 
     83 H47         4.6683   14.6804   -1.8904 H         1 <1>         0.0000 
     84 H48         4.8263   14.4353   -3.6281 H         1 <1>         0.0000 
     85 H49         7.2933   12.4839    1.4340 H         1 <1>         0.0000 
     86 H50         7.5710   13.4209   -0.0627 H         1 <1>         0.0000 
@<TRIPOS>BOND
     1    2    1 1    
     2    2    3 1    
     3    3    4 1    
     4    4    5 1    
     5    6    5 1    
     6    1    6 1    
     7    6    7 1    
     8    7    8 1    
     9    8    9 1    
    10   10    9 1    
    11   11   10 1    
    12   11   12 2    
    13    5   11 1    
    14    7   13 1    
    15   13   14 1    
    16   14   15 1    
    17   16   15 1    
    18    8   16 1    
    19   16   17 1    
    20   17   18 1    
    21   19   18 1    
    22   15   19 1    
    23    2   20 1    
    24    3   21 1    
    25   28   22 1    
    26    6   23 1    
    27   15   24 1    
    28   19   25 1    
    29   25   26 1    
    30   26   27 1    
    31   27   28 1    
    32   31   29 1    
    33   22   30 1    
    34   22   31 1    
    35   25   32 1    
    36   26   33 1    
    37   27   34 1    
    38   28   35 1    
    39   30   36 1    
    40   36   29 1    
    41    1   37 1    
    42    1   38 1    
    43    2   39 1    
    44    3   40 1    
    45    4   41 1    
    46    4   42 1    
    47    5   43 1    
    48    7   44 1    
    49    8   45 1    
    50    9   46 1    
    51    9   47 1    
    52   13   48 1    
    53   13   49 1    
    54   14   50 1    
    55   14   51 1    
    56   16   52 1    
    57   17   53 1    
    58   17   54 1    
    59   18   55 1    
    60   18   56 1    
    61   19   57 1    
    62   20   58 1    
    63   21   59 1    
    64   22   60 1    
    65   23   61 1    
    66   23   62 1    
    67   23   63 1    
    68   24   64 1    
    69   24   65 1    
    70   24   66 1    
    71   25   67 1    
    72   26   68 1    
    73   27   69 1    
    74   28   70 1    
    75   29   71 1    
    76   29   72 1    
    77   30   73 1    
    78   30   74 1    
    79   31   75 1    
    80   31   76 1    
    81   32   77 1    
    82   32   78 1    
    83   32   79 1    
    84   33   80 1    
    85   34   81 1    
    86   35   82 1    
    87   35   83 1    
    88   35   84 1    
    89   36   85 1    
    90   36   86 1    
@<TRIPOS>SUBSTRUCTURE
     1 ****        2 TEMP              0 ****  ****    0 ROOT 
@<TRIPOS>NORMAL
@<TRIPOS>FF_PBC
FORCE_FIELD_SETUP_FEATURE Force Field Setup information
v1.0  0 0.000000 0.000000 0.000000 0.000000 0.000000 0.000000 NONE 0 0 0 0 1 0 0 0 0 0 0 0 0
