#	Name:			PISM00488
#	Creating user name:	baoopengkun
#	Creation time:		Wed Feb 27 21:31:28 2019

#	Modifying user name:	baoopengkun
#	Modification time:	Wed Feb 27 21:32:07 2019

@<TRIPOS>MOLECULE
PISM00488
   13    13     1     1     0
SMALL
GAST_HUCK


@<TRIPOS>ATOM
      1 C1         17.9155    1.9112  -17.3498 C.2       1 <1>        -0.0985 
      2 C2         16.7267    2.8216  -17.2786 C.3       1 <1>        -0.0349 
      3 C3         16.6632    3.2138  -15.7747 C.3       1 <1>        -0.0398 
      4 C4         17.8359    2.4842  -15.0590 C.3       1 <1>        -0.0349 
      5 C5         18.5054    1.7317  -16.1693 C.2       1 <1>        -0.0985 
      6 H1         18.2593    1.4453  -18.2739 H         1 <1>         0.0450 
      7 H2         15.8238    2.2817  -17.6067 H         1 <1>         0.0390 
      8 H3         16.8855    3.6955  -17.9308 H         1 <1>         0.0390 
      9 H4         15.6963    2.9125  -15.3373 H         1 <1>         0.0304 
     10 H5         16.7605    4.3064  -15.6573 H         1 <1>         0.0304 
     11 H6         17.4806    1.7782  -14.2912 H         1 <1>         0.0390 
     12 H7         18.5490    3.1898  -14.6028 H         1 <1>         0.0390 
     13 H8         19.3841    1.1028  -16.0226 H         1 <1>         0.0450 
@<TRIPOS>BOND
     1    2    1 1    
     2    2    3 1    
     3    3    4 1    
     4    4    5 1    
     5    1    5 2    
     6    1    6 1    
     7    2    7 1    
     8    2    8 1    
     9    3    9 1    
    10    3   10 1    
    11    4   11 1    
    12    4   12 1    
    13    5   13 1    
@<TRIPOS>SUBSTRUCTURE
     1 ****        2 TEMP              0 ****  ****    0 ROOT 
@<TRIPOS>NORMAL
@<TRIPOS>FF_PBC
FORCE_FIELD_SETUP_FEATURE Force Field Setup information
v1.0  0 0.000000 0.000000 0.000000 0.000000 0.000000 0.000000 NONE 0 0 0 0 1 0 0 0 0 0 0 0 0
