#	Name:			PISM00969
#	Creating user name:	baoopengkun
#	Creation time:		Thu Dec 13 11:28:12 2018

#	Modifying user name:	baoopengkun
#	Modification time:	Thu Dec 13 11:29:35 2018

@<TRIPOS>MOLECULE
PISM00969
   28    29     1     1     0
SMALL
GAST_HUCK


@<TRIPOS>ATOM
      1 C1         -1.6594   11.8568   -3.7099 C.ar      1 <1>        -0.0429 
      2 C2         -2.4850   10.8958   -3.1143 C.ar      1 <1>        -0.0603 
      3 C3         -2.0134   10.1217   -2.0500 C.ar      1 <1>        -0.0686 
      4 C4         -0.7124   10.3048   -1.5740 C.ar      1 <1>        -0.0687 
      5 C5          0.1172   11.2603   -2.1673 C.ar      1 <1>        -0.0686 
      6 C6         -0.3551   12.0311   -3.2336 C.ar      1 <1>        -0.0603 
      7 C7         -2.1702   12.7187   -4.8734 C.3       1 <1>        -0.0163 
      8 C8         -2.5195   14.1491   -4.3845 C.3       1 <1>        -0.0098 
      9 C9         -3.6382   14.1119   -3.3107 C.3       1 <1>         0.1098 
     10 O10        -4.9132   13.7834   -3.8820 O.3       1 <1>        -0.2703 
     11 C11        -5.4505   14.9179   -3.4879 C.2       1 <1>         0.2398 
     12 C12        -4.2330   15.4812   -2.8286 C.3       1 <1>         0.0879 
     13 C13        -3.7156   16.7866   -3.4834 C.3       1 <1>        -0.0412 
     14 O14        -6.5817   15.3514   -3.6224 O.2       1 <1>        -0.3700 
     15 H1         -3.4987   10.7463   -3.4725 H         1 <1>         0.0557 
     16 H2         -2.6585    9.3777   -1.5924 H         1 <1>         0.0599 
     17 H3         -0.3468    9.7059   -0.7454 H         1 <1>         0.0559 
     18 H4          1.1288   11.4033   -1.7998 H         1 <1>         0.0599 
     19 H5          0.2976   12.7679   -3.6908 H         1 <1>         0.0557 
     20 H6         -3.0612   12.2608   -5.3327 H         1 <1>         0.0427 
     21 H7         -1.3866   12.7679   -5.6471 H         1 <1>         0.0427 
     22 H8         -2.8473   14.7311   -5.2594 H         1 <1>         0.0317 
     23 H9         -1.6247   14.6275   -3.9561 H         1 <1>         0.0317 
     24 H10        -3.3977   13.4595   -2.4538 H         1 <1>         0.0680 
     25 H11        -4.3597   15.5449   -1.7358 H         1 <1>         0.0581 
     26 H12        -3.8006   16.7661   -4.5796 H         1 <1>         0.0259 
     27 H13        -2.6652   16.9531   -3.2016 H         1 <1>         0.0259 
     28 H14        -4.3177   17.6316   -3.1153 H         1 <1>         0.0259 
@<TRIPOS>BOND
     1    2    1 ar   
     2    2    3 ar   
     3    3    4 ar   
     4    4    5 ar   
     5    5    6 ar   
     6    1    6 ar   
     7    1    7 1    
     8    7    8 1    
     9    8    9 1    
    10    9   10 1    
    11   10   11 1    
    12   11   12 1    
    13    9   12 1    
    14   12   13 1    
    15   11   14 2    
    16    2   15 1    
    17    3   16 1    
    18    4   17 1    
    19    5   18 1    
    20    6   19 1    
    21    7   20 1    
    22    7   21 1    
    23    8   22 1    
    24    8   23 1    
    25    9   24 1    
    26   12   25 1    
    27   13   26 1    
    28   13   27 1    
    29   13   28 1    
@<TRIPOS>SUBSTRUCTURE
     1 ****        2 TEMP              0 ****  ****    0 ROOT 
@<TRIPOS>NORMAL
@<TRIPOS>FF_PBC
FORCE_FIELD_SETUP_FEATURE Force Field Setup information
v1.0  0 0.000000 0.000000 0.000000 0.000000 0.000000 0.000000 NONE 0 0 0 0 1 0 0 0 0 0 0 0 0
