#	Name:			PISM00184
#	Creating user name:	14062
#	Creation time:		Mon Apr 01 17:06:40 2019

#	Modifying user name:	14062
#	Modification time:	Mon Apr 01 17:07:22 2019

@<TRIPOS>MOLECULE
PISM00184
   28    29     1     2     0
SMALL
GAST_HUCK


@<TRIPOS>ATOM
      1 C1         -1.0547   -2.9563    0.4335 C.ar      1 <1>        -0.0768 
      2 C2          0.2181   -3.5038    0.6616 C.ar      1 <1>        -0.0748 
      3 C3          1.3828   -2.7628    0.4185 C.ar      1 <1>        -0.0467 
      4 C4          1.2273   -1.4589   -0.0528 C.ar      1 <1>         0.0450 
      5 C5         -0.0291   -0.9346   -0.2777 C.ar      1 <1>        -0.0185 
      6 C6         -1.2031   -1.6490   -0.0472 C.ar      1 <1>        -0.0716 
      7 C7          0.3118    0.4420   -0.7740 C.2       1 <1>        -0.0224 
      8 C8          1.6533    0.5329   -0.7721 C.2       1 <1>         0.0040 
      9 N9          2.2846   -0.5714   -0.3408 N.3       1 <1>        -0.2350 
     10 C10        -0.6967    1.4823   -1.1918 C.3       1 <1>         0.0782 
     11 C11        -0.0787    2.8585   -1.0492 C.2       1 <1>         0.2403 
     12 O12         0.2188    3.5305   -2.0213 O.2       1 <1>        -0.3685 
     13 O13         0.1641    3.3427    0.1738 O.3       1 <1>        -0.2916 
     14 C14        -1.1666    1.1652   -2.6386 C.3       1 <1>        -0.0299 
     15 H1         -1.9389   -3.5543    0.6316 H         1 <1>         0.0524 
     16 H2          0.3031   -4.5206    1.0328 H         1 <1>         0.0543 
     17 H3          2.3694   -3.1811    0.5879 H         1 <1>         0.0548 
     18 H4         -2.1782   -1.2117   -0.2322 H         1 <1>         0.0551 
     19 H5          2.1934    1.4228   -1.0984 H         1 <1>         0.0760 
     20 H6          2.8312   -0.3530    0.5670 H         1 <1>         0.1886 
     21 H7         -1.5634    1.4179   -0.5153 H         1 <1>         0.0644 
     22 H8         -0.0722    2.7619    0.8865 H         1 <1>         0.2540 
     23 H9         -1.4969    0.1139   -2.6902 H         1 <1>         0.0305 
     24 H10        -0.3199    1.2897   -3.3339 H         1 <1>         0.0305 
     25 H11        -2.6548    1.8062   -4.1081 H         1 <1>         0.0232 
     26 C26        -2.3501    2.0660   -3.0820 C.3       1 <1>        -0.0617 
     27 H12        -2.0697    3.1297   -3.0648 H         1 <1>         0.0232 
     28 H13        -3.2144    1.9213   -2.4154 H         1 <1>         0.0232 
@<TRIPOS>BOND
     1    2    1 ar   
     2    2    3 ar   
     3    3    4 ar   
     4    4    5 ar   
     5    5    6 ar   
     6    1    6 ar   
     7    5    7 1    
     8    7    8 2    
     9    8    9 1    
    10    4    9 1    
    11    7   10 1    
    12   10   11 1    
    13   11   12 2    
    14   11   13 1    
    15   10   14 1    
    16    1   15 1    
    17    2   16 1    
    18    3   17 1    
    19    6   18 1    
    20    8   19 1    
    21    9   20 1    
    22   10   21 1    
    23   13   22 1    
    24   14   23 1    
    25   14   24 1    
    26   26   25 1    
    27   14   26 1    
    28   26   27 1    
    29   26   28 1    
@<TRIPOS>SUBSTRUCTURE
     1 ****        2 TEMP              0 ****  ****    0 ROOT 
@<TRIPOS>NORMAL
@<TRIPOS>FF_PBC
FORCE_FIELD_SETUP_FEATURE Force Field Setup information
v1.0  0 0.000000 0.000000 0.000000 0.000000 0.000000 0.000000 NONE 0 0 0 0 1 0 0 0 0 0 0 0 0
@<TRIPOS>RENDERING_ATTRS
ANTIALIASED_LINES 
1,2,3,4,5,6,7,8,9,10,11,12,13,14,15,16,17,18,19,20,21,22,23,24,25
