#	Name:			PISM01129
#	Creating user name:	14062
#	Creation time:		Sat Apr 06 23:21:00 2019

#	Modifying user name:	14062
#	Modification time:	Sat Apr 06 23:23:28 2019

@<TRIPOS>MOLECULE
PISM01129
   40    42     2     1     0
SMALL
GAST_HUCK


@<TRIPOS>ATOM
      1 C1         -9.0397    7.9436   -7.8348 C.3       1 BENZYL      0.1499 
      2 C1         -7.6205    8.0978   -7.3519 C.2       1 BENZYL      0.1632 
      3 C2         -6.8382    9.3866   -7.5137 C.ar      1 BENZYL      0.0353 
      4 C3         -7.4533   10.5876   -7.8905 C.ar      1 BENZYL     -0.0429 
      5 C4         -6.6930   11.7453   -8.0829 C.ar      1 BENZYL     -0.0559 
      6 C5         -5.3129   11.7225   -7.8652 C.ar      1 BENZYL     -0.0572 
      7 C6         -4.6975   10.5402   -7.4464 C.ar      1 BENZYL     -0.0559 
      8 C7         -5.4577    9.3790   -7.2787 C.ar      1 BENZYL     -0.0429 
      9 O9         -9.1544    8.5229   -9.1507 O.3       1 BENZYL     -0.2581 
     10 C1        -10.3921    8.5336   -9.6698 C.2       2 BENZYL      0.2629 
     11 C2        -11.5636    7.7488   -9.1189 C.ar      2 BENZYL      0.0532 
     12 C3        -11.5414    6.3510   -9.0977 C.ar      2 BENZYL     -0.0518 
     13 C4        -12.6159    5.6426   -8.5541 C.ar      2 BENZYL     -0.0650 
     14 C5        -13.7348    6.3304   -8.0758 C.ar      2 BENZYL     -0.0309 
     15 C6        -13.7779    7.7289   -8.1162 C.ar      2 BENZYL      0.0947 
     16 C7        -12.6856    8.4312   -8.6391 C.ar      2 BENZYL     -0.0144 
     17 O17        -7.0881    7.1429   -6.8072 O.2       1 BENZYL     -0.3755 
     18 O18       -10.5856    9.2322  -10.6498 O.2       2 BENZYL     -0.3567 
     19 N19       -14.8673    8.3916   -7.6551 N.pl3     2 BENZYL     -0.1379 
     20 C20       -15.4438    9.3452   -8.3217 C.2       2 BENZYL      0.2284 
     21 C21       -16.6164    9.8919   -7.5619 C.3       2 BENZYL      0.0644 
     22 C22       -16.6251    9.0023   -6.2917 C.3       2 BENZYL      0.0644 
     23 C23       -15.4283    8.1252   -6.5138 C.2       2 BENZYL      0.2284 
     24 O24       -15.1182    9.7681   -9.4176 O.2       2 BENZYL     -0.3721 
     25 O25       -15.0685    7.2908   -5.7013 O.2       2 BENZYL     -0.3721 
     26 H1         -9.6937    8.4531   -7.1104 H         1 BENZYL      0.0839 
     27 H2         -9.2730    6.8688   -7.8352 H         1 BENZYL      0.0839 
     28 H3         -8.5270   10.6416   -8.0327 H         1 BENZYL      0.0672 
     29 H4         -7.1754   12.6650   -8.4019 H         1 BENZYL      0.0630 
     30 H5         -4.7193   12.6186   -8.0202 H         1 BENZYL      0.0655 
     31 H6         -3.6293   10.5223   -7.2515 H         1 BENZYL      0.0630 
     32 H7         -4.9639    8.4646   -6.9647 H         1 BENZYL      0.0672 
     33 H8        -10.6957    5.8102   -9.5117 H         2 BENZYL      0.0577 
     34 H9        -12.5849    4.5578   -8.5074 H         2 BENZYL      0.0601 
     35 H10       -14.5748    5.7700   -7.6783 H         2 BENZYL      0.0578 
     36 H11       -12.6977    9.5157   -8.6674 H         2 BENZYL      0.0594 
     37 H12       -17.5342    9.7847   -8.1607 H         2 BENZYL      0.0540 
     38 H13       -16.4422   10.9546   -7.3319 H         2 BENZYL      0.0540 
     39 H14       -17.5291    8.3771   -6.2221 H         2 BENZYL      0.0540 
     40 H15       -16.5009    9.5838   -5.3642 H         2 BENZYL      0.0540 
@<TRIPOS>BOND
     1    2    3 1    
     2    3    4 ar   
     3    3    8 ar   
     4    8    7 ar   
     5    7    6 ar   
     6    6    5 ar   
     7    5    4 ar   
     8    2    1 1    
     9    1    9 1    
    10   10   11 1    
    11   11   12 ar   
    12   11   16 ar   
    13   16   15 ar   
    14   15   14 ar   
    15   14   13 ar   
    16   13   12 ar   
    17    9   10 1    
    18    2   17 2    
    19   10   18 2    
    20   15   19 1    
    21   19   20 1    
    22   20   21 1    
    23   21   22 1    
    24   22   23 1    
    25   19   23 1    
    26   20   24 2    
    27   23   25 2    
    28    1   26 1    
    29    1   27 1    
    30    4   28 1    
    31    5   29 1    
    32    6   30 1    
    33    7   31 1    
    34    8   32 1    
    35   12   33 1    
    36   13   34 1    
    37   14   35 1    
    38   16   36 1    
    39   21   37 1    
    40   21   38 1    
    41   22   39 1    
    42   22   40 1    
@<TRIPOS>SUBSTRUCTURE
     1 BENZYL      2 PERM              0 ****  ****    1 ROOT 
     2 BENZYL     10 PERM              0 ****  ****    1  
@<TRIPOS>NORMAL
@<TRIPOS>FF_PBC
FORCE_FIELD_SETUP_FEATURE Force Field Setup information
v1.0  0 0.000000 0.000000 0.000000 0.000000 0.000000 0.000000 NONE 0 0 0 0 1 0 0 0 0 0 0 0 0
