#	Name:			PISM00850.1
#	Creating user name:	baoopengkun
#	Creation time:		Thu Dec 13 15:12:19 2018

#	Modifying user name:	baoopengkun
#	Modification time:	Thu Dec 13 20:02:17 2018

@<TRIPOS>MOLECULE
PISM00850.1
   24    25     1     1     0
SMALL
GAST_HUCK


@<TRIPOS>ATOM
      1 Cl1         4.8695   -2.0667    4.7453 Cl        1 <1>        -0.0734 
      2 C2          1.3151   -2.3052    2.8505 C.ar      1 <1>        -0.0561 
      3 C3          2.4243   -2.6051    3.6471 C.ar      1 <1>        -0.0584 
      4 C4          3.4829   -1.6975    3.7409 C.ar      1 <1>         0.0320 
      5 C5          3.4345   -0.4945    3.0317 C.ar      1 <1>        -0.0183 
      6 C6          2.3373   -0.2042    2.2168 C.ar      1 <1>         0.1127 
      7 C7          1.2675   -1.1020    2.1404 C.ar      1 <1>         0.0684 
      8 Cl8        -0.1349   -0.7253    1.1599 Cl        1 <1>        -0.0786 
      9 O9          2.3165    0.9829    1.4856 O.3       1 <1>        -0.2700 
     10 C10         2.7240    0.8473    0.1157 C.3       1 <1>         0.2359 
     11 O11         2.7085    2.1598   -0.4795 O.3       1 <1>        -0.2313 
     12 C12         3.9695    2.4123   -0.8072 C.2       1 <1>         0.2494 
     13 C13         4.9191    1.3442   -0.5192 C.2       1 <1>         0.0292 
     14 C14         4.1628    0.3934    0.0254 C.2       1 <1>        -0.0019 
     15 C15         6.3977    1.3260   -0.7956 C.3       1 <1>        -0.0323 
     16 O16         4.3058    3.4650   -1.3215 O.2       1 <1>        -0.3691 
     17 H1          0.4890   -3.0059    2.7828 H         1 <1>         0.0595 
     18 H2          2.4648   -3.5416    4.1941 H         1 <1>         0.0529 
     19 H3          4.2493    0.2168    3.1109 H         1 <1>         0.0547 
     20 H4          2.0574    0.1804   -0.4550 H         1 <1>         0.1199 
     21 H5          4.5309   -0.5750    0.3619 H         1 <1>         0.0705 
     22 H6          6.7688    0.2925   -0.8672 H         1 <1>         0.0347 
     23 H7          6.9260    1.8433    0.0188 H         1 <1>         0.0347 
     24 H8          6.6045    1.8452   -1.7435 H         1 <1>         0.0347 
@<TRIPOS>BOND
     1    4    1 1    
     2    2    3 ar   
     3    3    4 ar   
     4    4    5 ar   
     5    5    6 ar   
     6    6    7 ar   
     7    2    7 ar   
     8    7    8 1    
     9    6    9 1    
    10    9   10 1    
    11   10   11 1    
    12   11   12 1    
    13   12   13 1    
    14   13   14 2    
    15   10   14 1    
    16   13   15 1    
    17   12   16 2    
    18    2   17 1    
    19    3   18 1    
    20    5   19 1    
    21   10   20 1    
    22   14   21 1    
    23   15   22 1    
    24   15   23 1    
    25   15   24 1    
@<TRIPOS>SUBSTRUCTURE
     1 ****        2 TEMP              0 ****  ****    0 ROOT 
@<TRIPOS>NORMAL
@<TRIPOS>FF_PBC
FORCE_FIELD_SETUP_FEATURE Force Field Setup information
v1.0  0 0.000000 0.000000 0.000000 0.000000 0.000000 0.000000 NONE 0 0 0 0 1 0 0 0 0 0 0 0 0
