#	Name:			PISM00546
#	Creating user name:	baoopengkun
#	Creation time:		Sat Dec 15 14:39:44 2018

#	Modifying user name:	baoopengkun
#	Modification time:	Sat Dec 15 14:41:22 2018

@<TRIPOS>MOLECULE
PISM00546
   21    21     1     1     0
SMALL
GAST_HUCK


@<TRIPOS>ATOM
      1 O1         -4.0719    4.5180    0.1827 O.2       1 <1>        -0.3632 
      2 C2         -3.0048    3.9513    0.0203 C.2       1 <1>         0.2556 
      3 O3         -1.9293    4.7229   -0.1583 O.3       1 <1>        -0.2951 
      4 C4         -2.9643    2.4351    0.0255 C.ar      1 <1>         0.0951 
      5 C5         -4.1563    1.7019    0.0682 C.ar      1 <1>        -0.0479 
      6 C6         -4.1306    0.3044    0.0431 C.ar      1 <1>        -0.0660 
      7 C7         -2.9092   -0.3701   -0.0299 C.ar      1 <1>        -0.0648 
      8 C8         -1.7164    0.3571   -0.0616 C.ar      1 <1>        -0.0215 
      9 C9         -1.7421    1.7551   -0.0122 C.ar      1 <1>         0.1457 
     10 O10        -0.5467    2.4798   -0.0052 O.3       1 <1>        -0.2084 
     11 C11         0.2712    2.2185    1.0222 C.2       1 <1>         0.2559 
     12 O12        -0.0129    1.4360    1.9143 O.2       1 <1>        -0.3632 
     13 C13         1.5885    2.9418    1.0178 C.3       1 <1>         0.0418 
     14 H1         -1.1334    4.2283   -0.3053 H         1 <1>         0.2520 
     15 H2         -5.1114    2.2156    0.1197 H         1 <1>         0.0645 
     16 H3         -5.0595   -0.2571    0.0793 H         1 <1>         0.0543 
     17 H4         -2.8868   -1.4553   -0.0610 H         1 <1>         0.0629 
     18 H5         -0.7667   -0.1643   -0.1242 H         1 <1>         0.0566 
     19 H6          1.7994    3.3255    2.0269 H         1 <1>         0.0486 
     20 H7          1.5764    3.7847    0.3109 H         1 <1>         0.0486 
     21 H8          2.3824    2.2389    0.7266 H         1 <1>         0.0486 
@<TRIPOS>BOND
     1    2    1 2    
     2    2    3 1    
     3    2    4 1    
     4    4    5 ar   
     5    5    6 ar   
     6    6    7 ar   
     7    7    8 ar   
     8    8    9 ar   
     9    4    9 ar   
    10    9   10 1    
    11   10   11 1    
    12   11   12 2    
    13   11   13 1    
    14    3   14 1    
    15    5   15 1    
    16    6   16 1    
    17    7   17 1    
    18    8   18 1    
    19   13   19 1    
    20   13   20 1    
    21   13   21 1    
@<TRIPOS>SUBSTRUCTURE
     1 ****        2 TEMP              0 ****  ****    0 ROOT 
@<TRIPOS>NORMAL
@<TRIPOS>FF_PBC
FORCE_FIELD_SETUP_FEATURE Force Field Setup information
v1.0  0 0.000000 0.000000 0.000000 0.000000 0.000000 0.000000 NONE 0 0 0 0 1 0 0 0 0 0 0 0 0
