#	Name:			PISM00053
#	Creating user name:	baoopengkun
#	Creation time:		Thu Dec 27 12:14:20 2018

#	Modifying user name:	baoopengkun
#	Modification time:	Thu Dec 27 12:16:00 2018

@<TRIPOS>MOLECULE
PISM00053
   38    40     1     1     0
SMALL
GAST_HUCK


@<TRIPOS>ATOM
      1 Cl1        -0.0042    7.0636  -15.2095 Cl        1 <1>        -0.0667 
      2 C2          0.7362    8.3486  -14.2775 C.ar      1 <1>         0.0449 
      3 C3          1.4419    8.0512  -13.1093 C.ar      1 <1>        -0.0419 
      4 C4          2.0561    9.0750  -12.3819 C.ar      1 <1>        -0.0357 
      5 C5          1.9989   10.4020  -12.8289 C.ar      1 <1>         0.0619 
      6 C6          1.2393   10.6949  -13.9691 C.ar      1 <1>        -0.0357 
      7 C7          0.6216    9.6753  -14.6989 C.ar      1 <1>        -0.0419 
      8 C8          2.6973   11.4764  -12.1450 C.1       1 <1>        -0.0136 
      9 O9          1.8217   12.1326  -11.6344 O.2       1 <1>        -0.5559 
     10 O10         3.4625   11.0679  -11.3081 O.2       1 <1>        -0.5559 
     11 N11         3.3487   12.1174  -12.8487 N.pl3     1 <1>        -0.1895 
     12 C12         4.0938   11.5999  -13.8602 C.ar      1 <1>         0.1507 
     13 C13         4.1927   12.3141  -15.0588 C.ar      1 <1>         0.0506 
     14 C14         4.9069   11.8113  -16.1532 C.ar      1 <1>         0.1473 
     15 C15         5.5038   10.5475  -16.0434 C.ar      1 <1>         0.0449 
     16 C16         5.4488    9.8433  -14.8367 C.ar      1 <1>         0.0145 
     17 C17         4.7628   10.3746  -13.7415 C.ar      1 <1>         0.0456 
     18 N18         4.9914   12.5527  -17.2906 N.pl3     1 <1>        -0.1633 
     19 C19         6.1211   12.7081  -17.9374 C.2       1 <1>         0.4564 
     20 O20         7.1557   12.1900  -17.5538 O.2       1 <1>        -0.2420 
     21 C21         6.2438   13.5277  -19.1722 C.2       1 <1>         0.4489 
     22 O22         5.1710   14.1419  -19.6961 O.3       1 <1>         0.0139 
     23 C23         5.6998   14.7553  -20.7690 C.2       1 <1>         0.3219 
     24 C24         7.0114   14.5727  -20.9541 C.2       1 <1>         0.1872 
     25 C25         7.3939   13.7089  -19.8304 C.2       1 <1>         0.2022 
     26 H1          1.5109    7.0238  -12.7669 H         1 <1>         0.0634 
     27 H2          2.5784    8.8306  -11.4624 H         1 <1>         0.0673 
     28 H3          1.1264   11.7261  -14.2877 H         1 <1>         0.0673 
     29 H4          0.0512    9.9116  -15.5911 H         1 <1>         0.0634 
     30 H5          3.4766   13.1205  -12.6238 H         1 <1>         0.2561 
     31 H6          3.7000   13.2779  -15.1373 H         1 <1>         0.0570 
     32 H7          6.0083   10.0937  -16.8908 H         1 <1>         0.1183 
     33 H8          5.9399    8.8778  -14.7471 H         1 <1>         0.0803 
     34 H9          4.7615    9.8267  -12.8049 H         1 <1>         0.1185 
     35 H10         4.1365   13.0288  -17.6257 H         1 <1>         0.2494 
     36 H11         5.0827   15.3649  -21.4430 H         1 <1>         0.3030 
     37 H12         7.6561   14.9654  -21.7458 H         1 <1>         0.1507 
     38 H13         8.3878   13.3157  -19.5997 H         1 <1>         0.1562 
@<TRIPOS>BOND
     1    2    1 1    
     2    2    3 ar   
     3    3    4 ar   
     4    4    5 ar   
     5    5    6 ar   
     6    6    7 ar   
     7    2    7 ar   
     8    5    8 1    
     9    8    9 2    
    10    8   10 2    
    11    8   11 1    
    12   11   12 1    
    13   12   13 ar   
    14   13   14 ar   
    15   14   15 ar   
    16   15   16 ar   
    17   16   17 ar   
    18   12   17 ar   
    19   14   18 1    
    20   18   19 1    
    21   19   20 2    
    22   19   21 1    
    23   21   22 1    
    24   22   23 1    
    25   23   24 2    
    26   24   25 1    
    27   21   25 2    
    28    3   26 1    
    29    4   27 1    
    30    6   28 1    
    31    7   29 1    
    32   11   30 1    
    33   13   31 1    
    34   15   32 1    
    35   16   33 1    
    36   17   34 1    
    37   18   35 1    
    38   23   36 1    
    39   24   37 1    
    40   25   38 1    
@<TRIPOS>SUBSTRUCTURE
     1 ****        2 TEMP              0 ****  ****    0 ROOT 
@<TRIPOS>NORMAL
@<TRIPOS>FF_PBC
FORCE_FIELD_SETUP_FEATURE Force Field Setup information
v1.0  0 0.000000 0.000000 0.000000 0.000000 0.000000 0.000000 NONE 0 0 0 0 1 0 0 0 0 0 0 0 0
