#	Name:			PISM00380
#	Creating user name:	baoopengkun
#	Creation time:		Sun Mar 31 22:04:51 2019

#	Modifying user name:	baoopengkun
#	Modification time:	Sun Mar 31 22:10:23 2019

@<TRIPOS>MOLECULE
PISM00380
  100   101     1     1     0
SMALL
GAST_HUCK


@<TRIPOS>ATOM
      1 C1          9.9435    0.0892   -4.3673 C.3       1 <1>        -0.0439 
      2 C2         10.9211    0.8692   -3.4379 C.3       1 <1>         0.0170 
      3 C3         10.8363    2.3293   -3.7628 C.2       1 <1>         0.1401 
      4 C4         11.0162    2.7025   -5.2120 C.ar      1 <1>         0.0312 
      5 C5         11.0223    1.6828   -6.1704 C.ar      1 <1>        -0.0611 
      6 C6         10.2963    0.3391   -5.8896 C.3       1 <1>         0.0299 
      7 C7         10.0820   -1.4282   -4.0100 C.3       1 <1>        -0.0709 
      8 C8          8.4827    0.5289   -4.0026 C.3       1 <1>        -0.0709 
      9 O9         10.6430    3.1717   -2.8995 O.2       1 <1>        -0.3711 
     10 C10        11.6727    1.9483   -7.3809 C.ar      1 <1>        -0.0576 
     11 C11        12.0006    3.2605   -7.7284 C.ar      1 <1>        -0.0074 
     12 C12        11.6051    4.3158   -6.9019 C.ar      1 <1>         0.1212 
     13 C13        11.1873    4.0378   -5.5986 C.ar      1 <1>         0.0066 
     14 O14        11.0793   -0.7773   -6.3650 O.3       1 <1>        -0.4653 
     15 C15         9.0206    0.4666   -6.6998 C.2       1 <1>        -0.0894 
     16 C16         8.3570   -0.5631   -7.2402 C.2       1 <1>        -0.0172 
     17 C17         7.1014   -0.3445   -7.9986 C.2       1 <1>         0.0244 
     18 C18         7.0283    0.8428   -8.9380 C.3       1 <1>        -0.0129 
     19 C19         6.0402   -1.1587   -7.8764 C.2       1 <1>         0.0649 
     20 C20         5.9399   -2.3419   -6.9897 C.2       1 <1>         0.2748 
     21 O21         6.7693   -2.5393   -6.1205 O.2       1 <1>        -0.3457 
     22 O22         4.9392   -3.2233   -7.1034 O.3       1 <1>        -0.2917 
     23 O23        11.6238    5.6273   -7.3778 O.3       1 <1>        -0.3008 
     24 C24        10.4223    6.0406   -8.0581 C.3       1 <1>         0.0765 
     25 C25        10.1188    5.1193   -9.2698 C.3       1 <1>        -0.0240 
     26 C26         8.9547    5.6079  -10.1737 C.3       1 <1>        -0.0505 
     27 C27         8.6658    4.5562  -11.2850 C.3       1 <1>        -0.0530 
     28 C28         7.5759    5.0424  -12.2793 C.3       1 <1>        -0.0531 
     29 C29         7.2611    3.9469  -13.3340 C.3       1 <1>        -0.0531 
     30 C30         6.2713    4.4335  -14.4275 C.3       1 <1>        -0.0531 
     31 C31         6.0142    3.2904  -15.4458 C.3       1 <1>        -0.0531 
     32 C32         5.0250    3.6976  -16.5711 C.3       1 <1>        -0.0531 
     33 C33         4.7791    2.5004  -17.5294 C.3       1 <1>        -0.0531 
     34 C34         3.7964    2.8706  -18.6736 C.3       1 <1>        -0.0531 
     35 C35         3.4911    1.6229  -19.5464 C.3       1 <1>        -0.0531 
     36 C36         2.5619    1.9499  -20.7459 C.3       1 <1>        -0.0531 
     37 C37         2.2692    0.6712  -21.5820 C.3       1 <1>        -0.0531 
     38 C38         1.4765    1.0073  -22.8773 C.3       1 <1>        -0.0531 
     39 C39         1.2027   -0.2572  -23.7381 C.3       1 <1>        -0.0531 
     40 H1         11.9616    0.5429   -3.5970 H         1 <1>         0.0477 
     41 H2         10.6713    0.7132   -2.3764 H         1 <1>         0.0477 
     42 H3         11.1155   -1.7872   -4.1466 H         1 <1>         0.0222 
     43 H4          9.4199   -2.0352   -4.6460 H         1 <1>         0.0222 
     44 H5          9.8091   -1.6160   -2.9600 H         1 <1>         0.0222 
     45 H6          7.7321   -0.0773   -4.5344 H         1 <1>         0.0222 
     46 H7          8.3048    1.5887   -4.2453 H         1 <1>         0.0222 
     47 H8          8.2904    0.3975   -2.9257 H         1 <1>         0.0222 
     48 H9         11.9286    1.1541   -8.0742 H         1 <1>         0.0743 
     49 H10        12.5456    3.4651   -8.6432 H         1 <1>         0.0645 
     50 H11        11.0045    4.8508   -4.9023 H         1 <1>         0.0670 
     51 H12        11.1860   -0.8369   -7.3067 H         1 <1>         0.1810 
     52 H13         8.6101    1.4695   -6.8256 H         1 <1>         0.0514 
     53 H14         8.7519   -1.5706   -7.1047 H         1 <1>         0.1108 
     54 H15         6.4282    0.6254   -9.8357 H         1 <1>         0.0430 
     55 H16         8.0361    1.1305   -9.2765 H         1 <1>         0.0430 
     56 H17         6.5733    1.6954   -8.4104 H         1 <1>         0.0430 
     57 H18         5.1571   -0.9297   -8.4711 H         1 <1>         0.0983 
     58 H19         4.3177   -3.0411   -7.7956 H         1 <1>         0.2518 
     59 H20        10.5856    7.0724   -8.4042 H         1 <1>         0.0626 
     60 H21         9.5748    6.0435   -7.3555 H         1 <1>         0.0626 
     61 H22         9.8520    4.1154   -8.9024 H         1 <1>         0.0292 
     62 H23        11.0326    5.0459   -9.8822 H         1 <1>         0.0292 
     63 H24         9.2258    6.5728  -10.6350 H         1 <1>         0.0266 
     64 H25         8.0463    5.7545   -9.5664 H         1 <1>         0.0266 
     65 H26         8.3374    3.6129  -10.8171 H         1 <1>         0.0265 
     66 H27         9.5946    4.3532  -11.8445 H         1 <1>         0.0265 
     67 H28         7.9354    5.9511  -12.7885 H         1 <1>         0.0265 
     68 H29         6.6555    5.2930  -11.7261 H         1 <1>         0.0265 
     69 H30         6.8323    3.0708  -12.8199 H         1 <1>         0.0265 
     70 H31         8.1997    3.6351  -13.8190 H         1 <1>         0.0265 
     71 H32         6.6938    5.3043  -14.9536 H         1 <1>         0.0265 
     72 H33         5.3209    4.7389  -13.9623 H         1 <1>         0.0265 
     73 H34         5.6043    2.4201  -14.9088 H         1 <1>         0.0265 
     74 H35         6.9714    2.9913  -15.9042 H         1 <1>         0.0265 
     75 H36         5.4378    4.5481  -17.1383 H         1 <1>         0.0265 
     76 H37         4.0672    4.0118  -16.1238 H         1 <1>         0.0265 
     77 H38         4.3654    1.6571  -16.9512 H         1 <1>         0.0265 
     78 H39         5.7399    2.1803  -17.9667 H         1 <1>         0.0265 
     79 H40         4.2480    3.6631  -19.2939 H         1 <1>         0.0265 
     80 H41         2.8572    3.2567  -18.2454 H         1 <1>         0.0265 
     81 H42         3.0138    0.8502  -18.9217 H         1 <1>         0.0265 
     82 H43         4.4401    1.2168  -19.9330 H         1 <1>         0.0265 
     83 H44         3.0529    2.7058  -21.3806 H         1 <1>         0.0265 
     84 H45         1.6129    2.3724  -20.3747 H         1 <1>         0.0265 
     85 H46         1.6944   -0.0432  -20.9664 H         1 <1>         0.0265 
     86 H47         3.2225    0.1948  -21.8618 H         1 <1>         0.0265 
     87 H48         2.0446    1.7318  -23.4846 H         1 <1>         0.0265 
     88 H49         0.5258    1.4727  -22.5791 H         1 <1>         0.0265 
     89 H50         2.1699   -0.7215  -23.9949 H         1 <1>         0.0265 
     90 C90         0.4519    0.0573  -25.0656 C.3       1 <1>        -0.0533 
     91 H52         0.6265   -0.9914  -23.1521 H         1 <1>         0.0265 
     92 H51         1.0457    0.7676  -25.6663 H         1 <1>         0.0265 
     93 C93        -0.9763    0.6371  -24.8528 C.3       1 <1>        -0.0559 
     94 H54         0.3624   -0.8803  -25.6394 H         1 <1>         0.0265 
     95 H53        -0.9107    1.6569  -24.4401 H         1 <1>         0.0263 
     96 H55        -1.5309    0.0051  -24.1377 H         1 <1>         0.0263 
     97 C97        -1.7747    0.7102  -26.1817 C.3       1 <1>        -0.0653 
     98 H56        -1.2245    1.3032  -26.9286 H         1 <1>         0.0230 
     99 H57        -2.7562    1.1825  -26.0143 H         1 <1>         0.0230 
    100 H58        -1.9434   -0.3024  -26.5833 H         1 <1>         0.0230 
@<TRIPOS>BOND
     1    2    1 1    
     2    2    3 1    
     3    3    4 1    
     4    4    5 ar   
     5    5    6 1    
     6    1    6 1    
     7    1    7 1    
     8    1    8 1    
     9    3    9 2    
    10    5   10 ar   
    11   10   11 ar   
    12   11   12 ar   
    13   12   13 ar   
    14    4   13 ar   
    15    6   14 1    
    16    6   15 1    
    17   15   16 2    
    18   16   17 1    
    19   17   18 1    
    20   17   19 2    
    21   19   20 1    
    22   20   21 2    
    23   20   22 1    
    24   12   23 1    
    25   23   24 1    
    26   24   25 1    
    27   25   26 1    
    28   26   27 1    
    29   27   28 1    
    30   28   29 1    
    31   29   30 1    
    32   30   31 1    
    33   31   32 1    
    34   32   33 1    
    35   33   34 1    
    36   34   35 1    
    37   35   36 1    
    38   36   37 1    
    39   37   38 1    
    40   38   39 1    
    41    2   40 1    
    42    2   41 1    
    43    7   42 1    
    44    7   43 1    
    45    7   44 1    
    46    8   45 1    
    47    8   46 1    
    48    8   47 1    
    49   10   48 1    
    50   11   49 1    
    51   13   50 1    
    52   14   51 1    
    53   15   52 1    
    54   16   53 1    
    55   18   54 1    
    56   18   55 1    
    57   18   56 1    
    58   19   57 1    
    59   22   58 1    
    60   24   59 1    
    61   24   60 1    
    62   25   61 1    
    63   25   62 1    
    64   26   63 1    
    65   26   64 1    
    66   27   65 1    
    67   27   66 1    
    68   28   67 1    
    69   28   68 1    
    70   29   69 1    
    71   29   70 1    
    72   30   71 1    
    73   30   72 1    
    74   31   73 1    
    75   31   74 1    
    76   32   75 1    
    77   32   76 1    
    78   33   77 1    
    79   33   78 1    
    80   34   79 1    
    81   34   80 1    
    82   35   81 1    
    83   35   82 1    
    84   36   83 1    
    85   36   84 1    
    86   37   85 1    
    87   37   86 1    
    88   38   87 1    
    89   38   88 1    
    90   39   89 1    
    91   39   90 1    
    92   39   91 1    
    93   90   92 1    
    94   90   93 1    
    95   90   94 1    
    96   93   95 1    
    97   93   96 1    
    98   93   97 1    
    99   97   98 1    
   100   97   99 1    
   101   97  100 1    
@<TRIPOS>SUBSTRUCTURE
     1 ****        2 TEMP              0 ****  ****    0 ROOT 
@<TRIPOS>NORMAL
@<TRIPOS>FF_PBC
FORCE_FIELD_SETUP_FEATURE Force Field Setup information
v1.0  0 0.000000 0.000000 0.000000 0.000000 0.000000 0.000000 NONE 0 0 0 0 1 0 0 0 0 0 0 0 0
