#	Name:			PISM01007
#	Creating user name:	malab
#	Creation time:		Mon Jul 01 21:55:25 2019

#	Modifying user name:	malab
#	Modification time:	Mon Jul 01 22:05:36 2019

@<TRIPOS>MOLECULE
PISM01007
   58    60     1     2     0
SMALL
GAST_HUCK


@<TRIPOS>ATOM
      1 C1         20.5382   24.5278   35.9523 C.3       1 <1>        -0.0652 
      2 C2         19.9018   23.1441   35.6595 C.3       1 <1>        -0.0535 
      3 C3         20.4040   22.0702   36.6626 C.3       1 <1>        -0.0253 
      4 C4         19.7712   20.6847   36.3809 C.3       1 <1>         0.0704 
      5 O5         20.2813   19.7501   37.3462 O.3       1 <1>        -0.3180 
      6 C6         19.7787   18.4586   37.2011 C.ar      1 <1>         0.0912 
      7 C7         20.4324   17.5435   36.3721 C.ar      1 <1>        -0.0313 
      8 C8         19.9199   16.2523   36.2166 C.ar      1 <1>        -0.0440 
      9 C9         18.7552   15.8742   36.8912 C.ar      1 <1>         0.0971 
     10 C10        18.1090   16.7881   37.7290 C.ar      1 <1>        -0.0440 
     11 C11        18.6212   18.0793   37.8852 C.ar      1 <1>        -0.0313 
     12 S12        18.0652   14.2595   36.6349 S.o2      1 <1>         0.0658 
     13 O13        17.2232   13.9155   37.7640 O.2       1 <1>        -0.1515 
     14 O14        19.1194   13.3495   36.2320 O.2       1 <1>        -0.1515 
     15 N15        17.0832   14.6300   35.2852 N.am      1 <1>        -0.2314 
     16 C16        15.7395   15.1566   35.4839 C.3       1 <1>         0.0499 
     17 C17        15.6973   16.5818   34.8815 C.3       1 <1>         0.0529 
     18 N18        16.2563   16.5262   33.5258 N.am      1 <1>        -0.2456 
     19 C19        17.5896   15.9550   33.3159 C.3       1 <1>         0.0529 
     20 C20        17.6230   14.5367   33.9351 C.3       1 <1>         0.0499 
     21 C21        15.5745   17.0305   32.4639 C.2       1 <1>         0.3250 
     22 O22        16.0116   17.0224   31.3240 O.2       1 <1>        -0.3773 
     23 C23        13.7002   18.0894   31.5708 C.3       1 <1>         0.1312 
     24 C24        12.3512   18.5996   32.0093 C.2       1 <1>        -0.0333 
     25 C25        12.1512   19.8870   31.7270 C.2       1 <1>        -0.0025 
     26 C26        13.3602   20.3863   31.0758 C.2       1 <1>         0.1195 
     27 C27        14.4257   19.3384   30.9859 C.3       1 <1>         0.0593 
     28 O28        13.4913   21.5231   30.6545 O.2       1 <1>        -0.3910 
     29 C29        10.9099   20.6816   32.0312 C.3       1 <1>        -0.0348 
     30 O30        14.3693   17.5536   32.7281 O.3       1 <1>        -0.2441 
     31 H1         20.2768   24.8639   36.9679 H         1 <1>         0.0230 
     32 H2         20.1705   25.2747   35.2310 H         1 <1>         0.0230 
     33 H3         21.6348   24.4718   35.8698 H         1 <1>         0.0230 
     34 H4         20.1598   22.8388   34.6317 H         1 <1>         0.0263 
     35 H5         18.8045   23.2303   35.7291 H         1 <1>         0.0263 
     36 H6         20.1483   22.3729   37.6913 H         1 <1>         0.0291 
     37 H7         21.5004   21.9792   36.5932 H         1 <1>         0.0291 
     38 H8         20.0324   20.3552   35.3615 H         1 <1>         0.0614 
     39 H9         18.6738   20.7521   36.4645 H         1 <1>         0.0614 
     40 H10        21.3368   17.8410   35.8518 H         1 <1>         0.0542 
     41 H11        20.4255   15.5432   35.5699 H         1 <1>         0.0608 
     42 H12        17.2078   16.4957   38.2571 H         1 <1>         0.0608 
     43 H13        18.1244   18.7914   38.5357 H         1 <1>         0.0542 
     44 H14        15.4545   15.1841   36.5472 H         1 <1>         0.0498 
     45 H15        15.0215   14.5130   34.9514 H         1 <1>         0.0498 
     46 H16        16.3356   17.2445   35.4870 H         1 <1>         0.0538 
     47 H17        14.6645   16.9582   34.9523 H         1 <1>         0.0538 
     48 H18        18.3227   16.5920   33.8353 H         1 <1>         0.0538 
     49 H19        17.8932   15.8880   32.2581 H         1 <1>         0.0538 
     50 H20        18.6499   14.1395   33.9209 H         1 <1>         0.0498 
     51 H21        16.9849   13.8628   33.3417 H         1 <1>         0.0498 
     52 H22        13.5339   17.3129   30.8032 H         1 <1>         0.0851 
     53 H23        11.6130   17.9709   32.5067 H         1 <1>         0.0681 
     54 H24        15.2857   19.6488   31.5983 H         1 <1>         0.0534 
     55 H25        14.7446   19.1911   29.9426 H         1 <1>         0.0534 
     56 H26        10.0835   20.3297   31.3961 H         1 <1>         0.0347 
     57 H27        11.0799   21.7509   31.8354 H         1 <1>         0.0347 
     58 H28        10.6327   20.5543   33.0883 H         1 <1>         0.0347 
@<TRIPOS>BOND
     1    2    1 1    
     2    3    2 1    
     3    4    3 1    
     4    5    4 1    
     5    6    5 1    
     6    7    6 ar   
     7    8    7 ar   
     8    9    8 ar   
     9    9   10 ar   
    10   10   11 ar   
    11   11    6 ar   
    12   12    9 1    
    13   12   13 2    
    14   12   14 2    
    15   15   12 1    
    16   16   15 1    
    17   17   16 1    
    18   18   17 1    
    19   18   19 1    
    20   19   20 1    
    21   20   15 1    
    22   21   18 am   
    23   21   22 2    
    24   30   21 1    
    25   23   24 1    
    26   24   25 2    
    27   26   25 1    
    28   27   26 1    
    29   23   27 1    
    30   26   28 2    
    31   25   29 1    
    32   23   30 1    
    33    1   31 1    
    34    1   32 1    
    35    1   33 1    
    36    2   34 1    
    37    2   35 1    
    38    3   36 1    
    39    3   37 1    
    40    4   38 1    
    41    4   39 1    
    42    7   40 1    
    43    8   41 1    
    44   10   42 1    
    45   11   43 1    
    46   16   44 1    
    47   16   45 1    
    48   17   46 1    
    49   17   47 1    
    50   19   48 1    
    51   19   49 1    
    52   20   50 1    
    53   20   51 1    
    54   23   52 1    
    55   24   53 1    
    56   27   54 1    
    57   27   55 1    
    58   29   56 1    
    59   29   57 1    
    60   29   58 1    
@<TRIPOS>SUBSTRUCTURE
     1 ****       23 TEMP              0 ****  ****    0 ROOT 
@<TRIPOS>NORMAL
@<TRIPOS>FF_PBC
FORCE_FIELD_SETUP_FEATURE Force Field Setup information
v1.0  0 0.000000 0.000000 0.000000 0.000000 0.000000 0.000000 NONE 0 0 0 0 1 0 0 0 0 0 0 0 0
@<TRIPOS>RENDERING_ATTRS
ANTIALIASED_LINES 
1,2,3,4,5,6,7,8,9,10,11,12,13,14,15,16,17,18,19,20,21,22,23,24,25,26,27,28,29,30
