#	Name:			PISM00440
#	Creating user name:	baoopengkun
#	Creation time:		Sun Mar 31 20:12:17 2019

#	Modifying user name:	baoopengkun
#	Modification time:	Sun Mar 31 20:34:32 2019

@<TRIPOS>MOLECULE
PISM00440
   39    39     1     2     0
SMALL
GAST_HUCK


@<TRIPOS>ATOM
      1 C1         -7.0742    6.6713    1.3058 C.3       1 <1>         0.0184 
      2 C2         -6.5727    6.6707   -0.1678 C.3       1 <1>        -0.0430 
      3 C3         -7.7623    7.1264   -1.0765 C.3       1 <1>         0.0368 
      4 C4         -8.9769    6.2311   -0.8832 C.2       1 <1>        -0.0667 
      5 C5         -9.1950    5.6176    0.2887 C.2       1 <1>         0.0132 
      6 C6         -8.2812    5.7855    1.4285 C.2       1 <1>         0.1466 
      7 O7         -8.5053    5.1960    2.4739 O.2       1 <1>        -0.3649 
      8 C8         -9.9326    6.0769   -2.0484 C.3       1 <1>        -0.0367 
      9 H1         -7.3615    7.6817    1.6346 H         1 <1>         0.0475 
     10 H2         -6.2835    6.3066    1.9797 H         1 <1>         0.0475 
     11 C11        -6.0770    5.2397   -0.5458 C.3       1 <1>        -0.0711 
     12 C12        -5.3715    7.6571   -0.2898 C.3       1 <1>        -0.0711 
     13 O13        -8.1639    8.4387   -0.6451 O.3       1 <1>        -0.4654 
     14 C14        -7.3001    7.1508   -2.5177 C.2       1 <1>        -0.0861 
     15 H5        -10.0578    4.9720    0.4437 H         1 <1>         0.0970 
     16 H6        -10.1684    7.0620   -2.4769 H         1 <1>         0.0416 
     17 H7        -10.8805    5.6087   -1.7427 H         1 <1>         0.0416 
     18 H8         -9.4866    5.4465   -2.8300 H         1 <1>         0.0416 
     19 H9         -8.9194    8.7786   -1.1123 H         1 <1>         0.1803 
     20 H10        -7.2134    6.1944   -3.0275 H         1 <1>         0.0537 
     21 C21        -6.9788    8.2721   -3.1824 C.2       1 <1>        -0.0144 
     22 C22        -6.5469    8.2677   -4.5996 C.2       1 <1>         0.0276 
     23 C23        -7.1452    7.2280   -5.5245 C.3       1 <1>        -0.0121 
     24 C24        -5.6636    9.1532   -5.0883 C.2       1 <1>         0.0681 
     25 C25        -4.9520   10.2263   -4.3673 C.2       1 <1>         0.2775 
     26 O26        -4.9858   10.2950   -3.1497 O.2       1 <1>        -0.3439 
     27 O27        -4.2510   11.1262   -5.0607 O.3       1 <1>        -0.2912 
     28 H11        -7.0417    9.2222   -2.6557 H         1 <1>         0.1123 
     29 H12        -7.2342    7.5922   -6.5597 H         1 <1>         0.0431 
     30 H13        -8.1565    6.9493   -5.1908 H         1 <1>         0.0431 
     31 H14        -6.5100    6.3295   -5.5213 H         1 <1>         0.0431 
     32 H15        -5.4011    9.1083   -6.1451 H         1 <1>         0.1013 
     33 H16        -3.8332   11.7689   -4.4981 H         1 <1>         0.2519 
     34 H3         -5.3479    4.8816    0.1968 H         1 <1>         0.0221 
     35 H4         -5.5778    5.2371   -1.5257 H         1 <1>         0.0221 
     36 H17        -6.9025    4.5143   -0.5855 H         1 <1>         0.0221 
     37 H37        -5.6803    8.6842   -0.0428 H         1 <1>         0.0221 
     38 H38        -4.9569    7.6618   -1.3101 H         1 <1>         0.0221 
     39 H39        -4.5663    7.3604    0.3995 H         1 <1>         0.0221 
@<TRIPOS>BOND
     1    2    1 1    
     2    2    3 1    
     3    3    4 1    
     4    4    5 2    
     5    5    6 1    
     6    1    6 1    
     7    6    7 2    
     8    4    8 1    
     9    1    9 1    
    10    1   10 1    
    11    2   11 1    
    12    2   12 1    
    13    3   13 1    
    14    3   14 1    
    15    5   15 1    
    16    8   16 1    
    17    8   17 1    
    18    8   18 1    
    19   13   19 1    
    20   14   20 1    
    21   14   21 2    
    22   21   22 1    
    23   22   23 1    
    24   22   24 2    
    25   24   25 1    
    26   25   26 2    
    27   25   27 1    
    28   21   28 1    
    29   23   29 1    
    30   23   30 1    
    31   23   31 1    
    32   24   32 1    
    33   27   33 1    
    34   11   34 1    
    35   11   35 1    
    36   11   36 1    
    37   12   37 1    
    38   12   38 1    
    39   12   39 1    
@<TRIPOS>SUBSTRUCTURE
     1 ****        2 TEMP              0 ****  ****    0 ROOT 
@<TRIPOS>NORMAL
@<TRIPOS>FF_PBC
FORCE_FIELD_SETUP_FEATURE Force Field Setup information
v1.0  0 0.000000 0.000000 0.000000 0.000000 0.000000 0.000000 NONE 0 0 0 0 1 0 0 0 0 0 0 0 0
@<TRIPOS>RENDERING_ATTRS
ANTIALIASED_LINES 
*
