#	Name:			PISM00812
#	Creating user name:	baoopengkun
#	Creation time:		Fri Nov 30 17:08:06 2018

#	Modifying user name:	baoopengkun
#	Modification time:	Fri Nov 30 17:11:24 2018

@<TRIPOS>MOLECULE
PISM00812
   37    38     1     2     0
SMALL
GAST_HUCK


@<TRIPOS>ATOM
      1 C1         -3.8341    1.7345    5.4862 C.ar      1 <1>        -0.0702 
      2 C2         -4.1511    2.1494    6.7831 C.ar      1 <1>        -0.0668 
      3 C3         -3.4364    1.6556    7.8792 C.ar      1 <1>        -0.0519 
      4 C4         -2.4207    0.7199    7.6604 C.ar      1 <1>        -0.0668 
      5 C5         -2.0921    0.3229    6.3610 C.ar      1 <1>        -0.0702 
      6 C6         -2.7607    0.8647    5.2566 C.ar      1 <1>        -0.0345 
      7 C7         -3.7569    2.1252    9.3033 C.3       1 <1>        -0.0338 
      8 C8         -2.3139    0.4860    3.8571 C.2       1 <1>         0.0787 
      9 C9         -1.7499   -0.8624    3.6465 C.2       1 <1>         0.2388 
     10 O10        -0.4312   -1.0749    3.4928 O.3       1 <1>        -0.2865 
     11 C11         0.4171    0.0883    3.5884 C.3       1 <1>         0.0638 
     12 O12        -2.5073   -1.8165    3.6106 O.2       1 <1>        -0.3769 
     13 C13        -2.4043    1.3139    2.8073 C.2       1 <1>         0.1029 
     14 O14        -2.8450    2.5694    2.9684 O.3       1 <1>        -0.2516 
     15 C15        -2.8605    3.3357    1.7534 C.3       1 <1>         0.2451 
     16 C16        -3.1813    4.7641    2.1182 C.2       1 <1>         0.0003 
     17 C17        -2.1474    5.5583    1.8467 C.2       1 <1>         0.0294 
     18 C18        -1.1564    4.6482    1.2843 C.2       1 <1>         0.2496 
     19 O19        -1.5332    3.3794    1.1907 O.3       1 <1>        -0.2294 
     20 C20        -2.0256    7.0438    2.0503 C.3       1 <1>        -0.0323 
     21 O21        -0.0558    5.0208    0.9171 O.2       1 <1>        -0.3691 
     22 H1         -4.4460    2.0902    4.6651 H         1 <1>         0.0542 
     23 H2         -4.9613    2.8557    6.9346 H         1 <1>         0.0542 
     24 H3         -1.8818    0.2968    8.5023 H         1 <1>         0.0542 
     25 H4         -1.3071   -0.4130    6.2221 H         1 <1>         0.0542 
     26 H5         -4.2517    3.1081    9.2965 H         1 <1>         0.0381 
     27 H6         -2.8335    2.2074    9.8964 H         1 <1>         0.0381 
     28 H7         -4.4248    1.3909    9.7778 H         1 <1>         0.0381 
     29 H8          1.4550   -0.2680    3.5132 H         1 <1>         0.0574 
     30 H9          0.3076    0.6090    4.5524 H         1 <1>         0.0574 
     31 H10         0.2483    0.7973    2.7643 H         1 <1>         0.0574 
     32 H11        -2.0916    0.9277    1.8327 H         1 <1>         0.1305 
     33 H12        -3.5867    2.9456    1.0200 H         1 <1>         0.1225 
     34 H13        -4.1261    5.0912    2.5507 H         1 <1>         0.0707 
     35 H14        -3.0161    7.5222    2.0203 H         1 <1>         0.0347 
     36 H15        -1.3963    7.4784    1.2591 H         1 <1>         0.0347 
     37 H16        -1.5594    7.2404    3.0271 H         1 <1>         0.0347 
@<TRIPOS>BOND
     1    2    1 ar   
     2    2    3 ar   
     3    3    4 ar   
     4    4    5 ar   
     5    5    6 ar   
     6    1    6 ar   
     7    3    7 1    
     8    6    8 1    
     9    8    9 1    
    10    9   10 1    
    11   10   11 1    
    12    9   12 2    
    13    8   13 2    
    14   13   14 1    
    15   14   15 1    
    16   15   16 1    
    17   16   17 2    
    18   17   18 1    
    19   18   19 1    
    20   15   19 1    
    21   17   20 1    
    22   18   21 2    
    23    1   22 1    
    24    2   23 1    
    25    4   24 1    
    26    5   25 1    
    27    7   26 1    
    28    7   27 1    
    29    7   28 1    
    30   11   29 1    
    31   11   30 1    
    32   11   31 1    
    33   13   32 1    
    34   15   33 1    
    35   16   34 1    
    36   20   35 1    
    37   20   36 1    
    38   20   37 1    
@<TRIPOS>SUBSTRUCTURE
     1 ****        2 TEMP              0 ****  ****    0 ROOT 
@<TRIPOS>NORMAL
@<TRIPOS>FF_PBC
FORCE_FIELD_SETUP_FEATURE Force Field Setup information
v1.0  0 0.000000 0.000000 0.000000 0.000000 0.000000 0.000000 NONE 0 0 0 0 1 0 0 0 0 0 0 0 0
@<TRIPOS>RENDERING_ATTRS
ANTIALIASED_LINES 
*
