#	Name:			PISM00663
#	Creating user name:	baoopengkun
#	Creation time:		Mon Dec 10 11:01:16 2018

#	Modifying user name:	baoopengkun
#	Modification time:	Mon Dec 10 11:01:42 2018

@<TRIPOS>MOLECULE
PISM00663
   34    36     1     2     0
SMALL
GAST_HUCK


@<TRIPOS>ATOM
      1 C1         -6.6246   -4.5872    8.0865 C.ar      1 <1>         0.0512 
      2 C2         -7.6538   -4.7238    9.0227 C.ar      1 <1>        -0.0287 
      3 C3         -8.7066   -5.6124    8.7935 C.ar      1 <1>        -0.0428 
      4 C4         -8.7079   -6.3902    7.6340 C.ar      1 <1>        -0.0428 
      5 C5         -7.6780   -6.2519    6.6992 C.ar      1 <1>        -0.0530 
      6 C6         -6.6651   -5.2994    6.8779 C.ar      1 <1>        -0.0406 
      7 Cl7        -5.2935   -3.5124    8.4791 Cl        1 <1>        -0.0523 
      8 C8         -5.6158   -5.0580    5.7695 C.3       1 <1>         0.0774 
      9 C9         -5.2670   -3.5782    5.5254 C.ar      1 <1>        -0.0546 
     10 C10        -6.2001   -2.5571    5.7475 C.ar      1 <1>        -0.0530 
     11 C11        -5.8532   -1.2202    5.5322 C.ar      1 <1>        -0.0286 
     12 C12        -4.5704   -0.8918    5.0876 C.ar      1 <1>         0.0613 
     13 C13        -3.6380   -1.9047    4.8524 C.ar      1 <1>        -0.0286 
     14 C14        -3.9895   -3.2411    5.0626 C.ar      1 <1>        -0.0530 
     15 Cl15       -4.1332    0.7841    4.8250 Cl        1 <1>        -0.0513 
     16 O16        -4.4491   -5.8067    6.1537 O.3       1 <1>        -0.4509 
     17 C17        -6.0742   -5.5438    4.3832 C.ar      1 <1>        -0.0053 
     18 C18        -7.2833   -5.1073    3.8317 C.ar      1 <1>         0.0358 
     19 N19        -7.6719   -5.5352    2.6138 N.ar      1 <1>        -0.2432 
     20 C20        -6.9110   -6.3954    1.9081 C.ar      1 <1>         0.1071 
     21 N21        -5.7417   -6.8388    2.4107 N.ar      1 <1>        -0.2432 
     22 C22        -5.3070   -6.4309    3.6204 C.ar      1 <1>         0.0358 
     23 H1         -7.6329   -4.1364    9.9350 H         1 <1>         0.0676 
     24 H2         -9.5152   -5.7007    9.5128 H         1 <1>         0.0776 
     25 H3         -9.5083   -7.1035    7.4604 H         1 <1>         0.0672 
     26 H4         -7.6778   -6.9055    5.8334 H         1 <1>         0.0764 
     27 H5         -7.2022   -2.7891    6.0915 H         1 <1>         0.0764 
     28 H6         -6.5794   -0.4337    5.7103 H         1 <1>         0.0676 
     29 H7         -2.6414   -1.6517    4.5054 H         1 <1>         0.0676 
     30 H8         -3.2612   -4.0199    4.8602 H         1 <1>         0.0764 
     31 H9         -4.0742   -5.5178    6.9785 H         1 <1>         0.1845 
     32 H10        -7.9249   -4.4242    4.3744 H         1 <1>         0.1077 
     33 H11        -7.2406   -6.7322    0.9317 H         1 <1>         0.1263 
     34 H12        -4.3560   -6.8028    3.9838 H         1 <1>         0.1077 
@<TRIPOS>BOND
     1    2    1 ar   
     2    2    3 ar   
     3    3    4 ar   
     4    4    5 ar   
     5    5    6 ar   
     6    1    6 ar   
     7    1    7 1    
     8    6    8 1    
     9    8    9 1    
    10    9   10 ar   
    11   10   11 ar   
    12   11   12 ar   
    13   12   13 ar   
    14   13   14 ar   
    15    9   14 ar   
    16   12   15 1    
    17    8   16 1    
    18    8   17 1    
    19   17   18 ar   
    20   18   19 ar   
    21   19   20 ar   
    22   20   21 ar   
    23   21   22 ar   
    24   17   22 ar   
    25    2   23 1    
    26    3   24 1    
    27    4   25 1    
    28    5   26 1    
    29   10   27 1    
    30   11   28 1    
    31   13   29 1    
    32   14   30 1    
    33   16   31 1    
    34   18   32 1    
    35   20   33 1    
    36   22   34 1    
@<TRIPOS>SUBSTRUCTURE
     1 ****        2 TEMP              0 ****  ****    0 ROOT 
@<TRIPOS>NORMAL
@<TRIPOS>FF_PBC
FORCE_FIELD_SETUP_FEATURE Force Field Setup information
v1.0  0 0.000000 0.000000 0.000000 0.000000 0.000000 0.000000 NONE 0 0 0 0 1 0 0 0 0 0 0 0 0
@<TRIPOS>RENDERING_ATTRS
ANTIALIASED_LINES 
*
