#	Name:			PISM00957
#	Creating user name:	baoopengkun
#	Creation time:		Thu Dec 13 10:35:31 2018

#	Modifying user name:	baoopengkun
#	Modification time:	Thu Dec 13 10:43:51 2018

@<TRIPOS>MOLECULE
PISM00957
   41    43     1     1     0
SMALL
GAST_HUCK


@<TRIPOS>ATOM
      1 C1         -9.7730    8.0652   -4.8880 C.ar      1 <1>        -0.0325 
      2 C2        -10.0217    9.3986   -5.2155 C.ar      1 <1>        -0.0338 
      3 C3        -11.2614    9.7483   -5.7541 C.ar      1 <1>        -0.0181 
      4 C4        -12.2551    8.7838   -5.9487 C.ar      1 <1>         0.0682 
      5 C5        -12.0592    7.4648   -5.5062 C.ar      1 <1>        -0.0060 
      6 C6        -10.7805    7.1110   -5.0515 C.ar      1 <1>        -0.0371 
      7 C7        -13.1517    6.3647   -5.4742 C.3       1 <1>         0.0868 
      8 O8        -12.8601    5.4974   -4.3582 O.3       1 <1>        -0.4212 
      9 C9        -13.0417    5.4648   -6.7383 C.3       1 <1>        -0.0358 
     10 C10       -14.6057    6.8669   -5.2211 C.3       1 <1>         0.0820 
     11 N11       -14.5917    7.9047   -4.1995 N.pl3     1 <1>        -0.1838 
     12 N12       -13.6708    8.0496   -3.2052 N.2       1 <1>        -0.1909 
     13 C13       -13.8734    9.0834   -2.4767 C.2       1 <1>         0.0618 
     14 N14       -15.0462    9.6278   -3.1033 N.2       1 <1>        -0.2870 
     15 C15       -15.3974    8.9146   -4.0741 C.2       1 <1>         0.1269 
     16 C16       -13.1169    6.2268   -8.0887 C.3       1 <1>        -0.0239 
     17 C17       -12.9462    5.2265   -9.2413 C.ar      1 <1>        -0.0434 
     18 C18       -11.6807    4.9810   -9.7868 C.ar      1 <1>        -0.0597 
     19 C19       -11.5310    4.0800  -10.8452 C.ar      1 <1>        -0.0546 
     20 C20       -12.6457    3.4130  -11.3597 C.ar      1 <1>         0.0330 
     21 C21       -13.9095    3.6468  -10.8121 C.ar      1 <1>        -0.0546 
     22 C22       -14.0582    4.5489   -9.7545 C.ar      1 <1>        -0.0597 
     23 Cl23      -12.4590    2.2858  -12.6877 Cl        1 <1>        -0.0771 
     24 Cl24      -13.7108    9.3047   -6.7723 Cl        1 <1>        -0.0421 
     25 H1         -8.7998    7.7714   -4.5058 H         1 <1>         0.0699 
     26 H2         -9.2583   10.1546   -5.0570 H         1 <1>         0.0853 
     27 H3        -11.4539   10.7805   -6.0290 H         1 <1>         0.0703 
     28 H4        -10.5515    6.0766   -4.8144 H         1 <1>         0.0849 
     29 H5        -12.8991    5.9590   -3.5238 H         1 <1>         0.1959 
     30 H6        -13.8340    4.6996   -6.7031 H         1 <1>         0.0218 
     31 H7        -12.0712    4.9431   -6.7040 H         1 <1>         0.0218 
     32 H8        -15.2101    6.0303   -4.8372 H         1 <1>         0.0570 
     33 H9        -15.1047    7.2153   -6.1333 H         1 <1>         0.0570 
     34 H10       -13.3097    9.4479   -1.6193 H         1 <1>         0.0863 
     35 H11       -16.2547    9.1326   -4.7099 H         1 <1>         0.1361 
     36 H12       -12.3232    6.9874   -8.1479 H         1 <1>         0.0420 
     37 H13       -14.0818    6.7397   -8.2102 H         1 <1>         0.0420 
     38 H14       -10.8068    5.4878   -9.3899 H         1 <1>         0.0557 
     39 H15       -10.5492    3.8962  -11.2693 H         1 <1>         0.0606 
     40 H16       -14.7747    3.1262  -11.2096 H         1 <1>         0.0606 
     41 H17       -15.0434    4.7194   -9.3320 H         1 <1>         0.0557 
@<TRIPOS>BOND
     1    2    1 ar   
     2    2    3 ar   
     3    3    4 ar   
     4    4    5 ar   
     5    5    6 ar   
     6    1    6 ar   
     7    5    7 1    
     8    7    8 1    
     9    7    9 1    
    10    7   10 1    
    11   10   11 1    
    12   11   12 1    
    13   12   13 2    
    14   13   14 1    
    15   14   15 2    
    16   11   15 1    
    17    9   16 1    
    18   16   17 1    
    19   17   18 ar   
    20   18   19 ar   
    21   19   20 ar   
    22   20   21 ar   
    23   21   22 ar   
    24   17   22 ar   
    25   20   23 1    
    26    4   24 1    
    27    1   25 1    
    28    2   26 1    
    29    3   27 1    
    30    6   28 1    
    31    8   29 1    
    32    9   30 1    
    33    9   31 1    
    34   10   32 1    
    35   10   33 1    
    36   13   34 1    
    37   15   35 1    
    38   16   36 1    
    39   16   37 1    
    40   18   38 1    
    41   19   39 1    
    42   21   40 1    
    43   22   41 1    
@<TRIPOS>SUBSTRUCTURE
     1 ****        2 TEMP              0 ****  ****    0 ROOT 
@<TRIPOS>NORMAL
@<TRIPOS>FF_PBC
FORCE_FIELD_SETUP_FEATURE Force Field Setup information
v1.0  0 0.000000 0.000000 0.000000 0.000000 0.000000 0.000000 NONE 0 0 0 0 1 0 0 0 0 0 0 0 0
