#	Name:			PISM00459
#	Creating user name:	Administrator
#	Creation time:		Sat Feb 23 00:08:02 2019

#	Modifying user name:	Administrator
#	Modification time:	Sat Feb 23 00:18:37 2019

@<TRIPOS>MOLECULE
PISM00459
   42    43     1     2     0
SMALL
GAST_HUCK


@<TRIPOS>ATOM
      1 C1          6.1038    0.6960    3.5278 C.2       1 PHENYL     -0.0038 
      2 N2          5.3513    0.0926    2.7077 N.2       1 PHENYL     -0.2468 
      3 N3          4.3615    0.9111    2.2911 N.pl3     1 PHENYL     -0.2257 
      4 C4          4.4753    2.0753    2.8759 C.2       1 PHENYL      0.0587 
      5 C5          5.5513    2.0476    3.6787 C.2       1 PHENYL     -0.0133 
      6 C6          6.1329    3.1152    4.5675 C.3       1 PHENYL      0.0433 
      7 N7          6.2017    2.6681    5.9512 N.am      1 PHENYL     -0.2366 
      8 S8          7.7288    3.0528    6.9424 S.o2      1 PHENYL      0.0517 
      9 O9          8.8440    3.2414    6.0358 O.2       1 PHENYL     -0.1531 
     10 O10         7.8367    2.1019    8.0302 O.2       1 PHENYL     -0.1531 
     11 C11         7.2374    4.6552    7.6121 C.3       1 PHENYL      0.1182 
     12 C           8.1744    5.2012    8.7003 C.ar      1 PHENYL     -0.0204 
     13 C           9.4861    4.7311    8.8508 C.ar      1 PHENYL     -0.0587 
     14 C          10.3219    5.2552    9.8403 C.ar      1 PHENYL     -0.0685 
     15 C           9.8510    6.2503   10.7017 C.ar      1 PHENYL     -0.0687 
     16 C           8.5380    6.7116   10.5735 C.ar      1 PHENYL     -0.0685 
     17 C           7.7090    6.1959    9.5711 C.ar      1 PHENYL     -0.0587 
     18 C18         7.3165    0.0986    4.1855 C.3       1 PHENYL     -0.0319 
     19 C19         3.5172    3.2153    2.6288 C.3       1 PHENYL     -0.0085 
     20 C20         3.3318    0.5051    1.3463 C.3       1 PHENYL      0.0529 
     21 C21         5.0688    2.0444    6.6221 C.3       1 PHENYL      0.0190 
     22 H22        10.5037    6.6602   11.4660 H         1 PHENYL      0.0559 
     23 H1          5.5717    4.0570    4.5463 H         1 PHENYL      0.0535 
     24 H2          7.1418    3.3186    4.1842 H         1 PHENYL      0.0535 
     25 H3          6.2288    4.5304    8.0323 H         1 PHENYL      0.0682 
     26 H4          7.1868    5.3750    6.7832 H         1 PHENYL      0.0682 
     27 H5          9.8782    3.9559    8.2046 H         1 PHENYL      0.0557 
     28 H6         11.3387    4.8872    9.9372 H         1 PHENYL      0.0599 
     29 H7          8.1630    7.4713   11.2531 H         1 PHENYL      0.0599 
     30 H8          6.6964    6.5761    9.4722 H         1 PHENYL      0.0557 
     31 H9          7.8107    0.8242    4.8462 H         1 PHENYL      0.0367 
     32 H10         8.0274   -0.2185    3.4091 H         1 PHENYL      0.0367 
     33 H11         7.0149   -0.7768    4.7786 H         1 PHENYL      0.0367 
     34 H12         3.8455    4.1697    3.0602 H         1 PHENYL      0.0412 
     35 H13         2.5375    2.9618    3.0625 H         1 PHENYL      0.0412 
     36 H14         3.4041    3.3618    1.5448 H         1 PHENYL      0.0412 
     37 H15         2.3475    0.9290    1.5884 H         1 PHENYL      0.0585 
     38 H16         3.2512   -0.5912    1.3593 H         1 PHENYL      0.0585 
     39 H17         3.6284    0.8261    0.3370 H         1 PHENYL      0.0585 
     40 H18         4.8675    1.0492    6.1979 H         1 PHENYL      0.0443 
     41 H19         4.1738    2.6741    6.5090 H         1 PHENYL      0.0443 
     42 H20         5.2716    1.9305    7.6983 H         1 PHENYL      0.0443 
@<TRIPOS>BOND
     1    1    2 2    
     2    2    3 1    
     3    4    3 1    
     4    5    4 2    
     5    5    1 1    
     6    6    5 1    
     7    7    6 1    
     8    8    7 1    
     9    8    9 2    
    10    8   10 2    
    11   11    8 1    
    12   12   13 ar   
    13   12   17 ar   
    14   17   16 ar   
    15   16   15 ar   
    16   14   15 ar   
    17   13   14 ar   
    18   12   11 1    
    19    1   18 1    
    20    4   19 1    
    21    3   20 1    
    22    7   21 1    
    23   15   22 1    
    24    6   23 1    
    25    6   24 1    
    26   11   25 1    
    27   11   26 1    
    28   13   27 1    
    29   14   28 1    
    30   16   29 1    
    31   17   30 1    
    32   18   31 1    
    33   18   32 1    
    34   18   33 1    
    35   19   34 1    
    36   19   35 1    
    37   19   36 1    
    38   20   37 1    
    39   20   38 1    
    40   20   39 1    
    41   21   40 1    
    42   21   41 1    
    43   21   42 1    
@<TRIPOS>SUBSTRUCTURE
     1 PHENYL     12 PERM              0 ****  ****    0 ROOT 
@<TRIPOS>NORMAL
@<TRIPOS>FF_PBC
FORCE_FIELD_SETUP_FEATURE Force Field Setup information
v1.0  0 0.000000 0.000000 0.000000 0.000000 0.000000 0.000000 NONE 0 0 0 0 1 0 0 0 0 0 0 0 0
@<TRIPOS>RENDERING_ATTRS
ANTIALIASED_LINES 
*
