#	Name:			PISM00789
#	Creating user name:	baoopengkun
#	Creation time:		Tue Jan 08 15:40:47 2019

#	Modifying user name:	baoopengkun
#	Modification time:	Tue Jan 08 15:42:41 2019

@<TRIPOS>MOLECULE
PISM00789
   45    49     1     1     0
SMALL
GAST_HUCK


@<TRIPOS>ATOM
      1 C1         10.4141   10.9118  -27.7160 C.ar      1 <1>        -0.0243 
      2 C2          9.0946   10.5071  -27.4418 C.ar      1 <1>        -0.0661 
      3 C3          8.8101    9.3318  -26.7325 C.ar      1 <1>        -0.0406 
      4 C4          9.8902    8.5493  -26.3262 C.ar      1 <1>         0.0668 
      5 C5         11.1892    8.9378  -26.6195 C.ar      1 <1>        -0.0095 
      6 C6         11.4907   10.1077  -27.3127 C.ar      1 <1>        -0.0626 
      7 C7         11.9917    7.8204  -26.0094 C.2       1 <1>        -0.0180 
      8 C8         11.1177    6.9788  -25.4685 C.2       1 <1>         0.1041 
      9 N9          9.8864    7.3813  -25.6401 N.pl3     1 <1>        -0.2673 
     10 C10         8.6983    6.6820  -25.1665 C.3       1 <1>         0.0370 
     11 C11        11.8419    5.8708  -24.8536 C.2       1 <1>         0.1398 
     12 O12        11.3901    4.9052  -24.2597 O.2       1 <1>        -0.4041 
     13 C13        13.2640    6.1727  -25.1022 C.2       1 <1>         0.0279 
     14 C14        13.4456    7.4648  -25.8794 C.3       1 <1>        -0.0035 
     15 C15        14.2801    5.4073  -24.6929 C.2       1 <1>         0.0829 
     16 O16        15.5374    5.7817  -24.9716 O.3       1 <1>        -0.2667 
     17 C17        16.5417    4.9011  -24.4375 C.3       1 <1>         0.2401 
     18 C18        16.5127    4.8606  -22.9280 C.2       1 <1>        -0.0007 
     19 C19        16.3459    3.6097  -22.5027 C.2       1 <1>         0.0293 
     20 C20        16.2555    2.8350  -23.7368 C.2       1 <1>         0.2496 
     21 O21        16.3424    3.5371  -24.8610 O.3       1 <1>        -0.2302 
     22 C22        16.2581    3.1159  -21.0846 C.3       1 <1>        -0.0323 
     23 O23        16.1052    1.6258  -23.7429 O.2       1 <1>        -0.3691 
     24 C24        10.7067   12.2076  -28.4468 C.2       1 <1>         0.0272 
     25 S25        12.2382   12.4783  -29.3240 S.3       1 <1>        -0.0424 
     26 C26        11.6530   14.0955  -29.7754 C.2       1 <1>        -0.0086 
     27 C27        10.4376   14.3678  -29.2960 C.2       1 <1>        -0.0777 
     28 C28         9.8809   13.2582  -28.5098 C.2       1 <1>        -0.0722 
     29 H1          8.2586   11.1032  -27.7878 H         1 <1>         0.0551 
     30 H2          7.7893    9.0411  -26.5104 H         1 <1>         0.0550 
     31 H3         12.5225   10.3694  -27.5161 H         1 <1>         0.0558 
     32 H4          8.0579    6.4253  -26.0237 H         1 <1>         0.0555 
     33 H5          8.1386    7.3340  -24.4790 H         1 <1>         0.0555 
     34 H6          8.9569    5.7539  -24.6341 H         1 <1>         0.0555 
     35 H7         13.9117    7.2989  -26.8622 H         1 <1>         0.0475 
     36 H8         13.9989    8.2235  -25.3060 H         1 <1>         0.0475 
     37 H9         14.0193    4.5003  -24.1420 H         1 <1>         0.1132 
     38 H10        17.5315    5.2465  -24.7771 H         1 <1>         0.1214 
     39 H11        16.6147    5.7336  -22.2845 H         1 <1>         0.0706 
     40 H12        15.9046    2.0740  -21.0646 H         1 <1>         0.0347 
     41 H13        15.5564    3.7406  -20.5119 H         1 <1>         0.0347 
     42 H14        17.2518    3.1657  -20.6152 H         1 <1>         0.0347 
     43 H15        12.2372   14.7861  -30.3826 H         1 <1>         0.0717 
     44 H16         9.9118   15.3074  -29.4652 H         1 <1>         0.0415 
     45 H17         8.9005   13.3353  -28.0435 H         1 <1>         0.0410 
@<TRIPOS>BOND
     1    2    1 ar   
     2    2    3 ar   
     3    3    4 ar   
     4    4    5 ar   
     5    5    6 ar   
     6    1    6 ar   
     7    5    7 1    
     8    7    8 2    
     9    8    9 1    
    10    4    9 1    
    11    9   10 1    
    12    8   11 1    
    13   11   12 2    
    14   11   13 1    
    15   13   14 1    
    16    7   14 1    
    17   13   15 2    
    18   15   16 1    
    19   16   17 1    
    20   17   18 1    
    21   18   19 2    
    22   19   20 1    
    23   20   21 1    
    24   17   21 1    
    25   19   22 1    
    26   20   23 2    
    27    1   24 1    
    28   24   25 1    
    29   25   26 1    
    30   26   27 2    
    31   27   28 1    
    32   24   28 2    
    33    2   29 1    
    34    3   30 1    
    35    6   31 1    
    36   10   32 1    
    37   10   33 1    
    38   10   34 1    
    39   14   35 1    
    40   14   36 1    
    41   15   37 1    
    42   17   38 1    
    43   18   39 1    
    44   22   40 1    
    45   22   41 1    
    46   22   42 1    
    47   26   43 1    
    48   27   44 1    
    49   28   45 1    
@<TRIPOS>SUBSTRUCTURE
     1 ****        2 TEMP              0 ****  ****    0 ROOT 
@<TRIPOS>NORMAL
@<TRIPOS>FF_PBC
FORCE_FIELD_SETUP_FEATURE Force Field Setup information
v1.0  0 0.000000 0.000000 0.000000 0.000000 0.000000 0.000000 NONE 0 0 0 0 1 0 0 0 0 0 0 0 0
