#	Name:			PISM00299
#	Creating user name:	baoopengkun
#	Creation time:		Sun Dec 16 04:18:28 2018

#	Modifying user name:	baoopengkun
#	Modification time:	Sun Dec 16 04:25:26 2018

@<TRIPOS>MOLECULE
PISM00299
   36    38     1     1     0
SMALL
GAST_HUCK


@<TRIPOS>ATOM
      1 C1         -2.7285   10.1902   47.4670 C.3       1 <1>        -0.0307 
      2 C2         -1.4689    9.3670   47.0955 C.3       1 <1>        -0.0490 
      3 C3         -1.8091    7.8532   46.9541 C.3       1 <1>        -0.0307 
      4 C4         -3.3115    7.6134   46.6377 C.3       1 <1>         0.0372 
      5 N5         -3.8265    8.7066   45.8113 N.am      1 <1>        -0.2861 
      6 C6         -3.7400   10.0872   46.2930 C.3       1 <1>         0.0372 
      7 C7         -4.4528    8.4583   44.6257 C.2       1 <1>         0.1064 
      8 S8         -5.2588    9.7161   43.7792 S.2       1 <1>        -0.2661 
      9 C9         -4.4967    7.1331   43.9764 C.2       1 <1>         0.1637 
     10 O10        -5.6698    6.5787   43.6560 O.3       1 <1>        -0.2442 
     11 C11        -5.2804    5.4250   43.1046 C.2       1 <1>         0.1308 
     12 C12        -3.9611    5.2209   43.0486 C.2       1 <1>        -0.0405 
     13 C13        -3.4098    6.4262   43.6615 C.2       1 <1>        -0.0368 
     14 C14        -6.2984    4.4297   42.5852 C.ar      1 <1>         0.0303 
     15 C15        -6.0085    3.0593   42.5706 C.ar      1 <1>        -0.0377 
     16 C16        -6.9425    2.1369   42.0915 C.ar      1 <1>         0.0402 
     17 C17        -8.1899    2.5756   41.6427 C.ar      1 <1>        -0.0484 
     18 C18        -8.4906    3.9396   41.6627 C.ar      1 <1>        -0.0478 
     19 C19        -7.5461    4.8647   42.1174 C.ar      1 <1>         0.0503 
     20 H1         -2.4628   11.2466   47.6428 H         1 <1>         0.0287 
     21 H2         -3.1638    9.7960   48.3995 H         1 <1>         0.0287 
     22 H3         -0.6782    9.5104   47.8511 H         1 <1>         0.0267 
     23 H4         -1.0862    9.7564   46.1364 H         1 <1>         0.0267 
     24 H5         -1.5622    7.3167   47.8863 H         1 <1>         0.0287 
     25 H6         -1.1867    7.4235   46.1513 H         1 <1>         0.0287 
     26 H7         -3.8895    7.6345   47.5759 H         1 <1>         0.0545 
     27 H8         -3.4512    6.6013   46.2309 H         1 <1>         0.0545 
     28 H9         -4.7309   10.4489   46.6127 H         1 <1>         0.0545 
     29 H10        -3.3716   10.7392   45.4831 H         1 <1>         0.0545 
     30 H11        -3.3938    4.3825   42.6478 H         1 <1>         0.0425 
     31 H12        -2.3630    6.6835   43.8177 H         1 <1>         0.0486 
     32 H13        -5.0589    2.6893   42.9391 H         1 <1>         0.0623 
     33 Cl33       -6.5507    0.4298   42.0569 Cl        1 <1>        -0.0708 
     34 H15        -8.9200    1.8588   41.2809 H         1 <1>         0.0614 
     35 H16        -9.4616    4.2840   41.3212 H         1 <1>         0.0620 
     36 Cl36       -7.9589    6.5685   42.0757 Cl        1 <1>        -0.0697 
@<TRIPOS>BOND
     1    2    1 1    
     2    2    3 1    
     3    3    4 1    
     4    4    5 1    
     5    5    6 1    
     6    1    6 1    
     7    5    7 am   
     8    7    8 2    
     9    7    9 1    
    10    9   10 1    
    11   10   11 1    
    12   11   12 2    
    13   12   13 1    
    14    9   13 2    
    15   11   14 1    
    16   14   15 ar   
    17   15   16 ar   
    18   16   17 ar   
    19   17   18 ar   
    20   18   19 ar   
    21   14   19 ar   
    22    1   20 1    
    23    1   21 1    
    24    2   22 1    
    25    2   23 1    
    26    3   24 1    
    27    3   25 1    
    28    4   26 1    
    29    4   27 1    
    30    6   28 1    
    31    6   29 1    
    32   12   30 1    
    33   13   31 1    
    34   15   32 1    
    35   16   33 1    
    36   17   34 1    
    37   18   35 1    
    38   19   36 1    
@<TRIPOS>SUBSTRUCTURE
     1 ****        2 TEMP              0 ****  ****    0 ROOT 
@<TRIPOS>NORMAL
@<TRIPOS>FF_PBC
FORCE_FIELD_SETUP_FEATURE Force Field Setup information
v1.0  0 0.000000 0.000000 0.000000 0.000000 0.000000 0.000000 NONE 0 0 0 0 1 0 0 0 0 0 0 0 0
