#	Name:			PISM00193
#	Creating user name:	14062
#	Creation time:		Wed Jun 19 15:12:34 2019

#	Modifying user name:	14062
#	Modification time:	Wed Jun 19 15:16:42 2019

@<TRIPOS>MOLECULE
PISM00193
   36    37     1     1     0
SMALL
GAST_HUCK


@<TRIPOS>ATOM
      1 C1         -7.0691    0.1157   -0.4137 C.ar      1 BENZYL     -0.0701 
      2 C1         -5.7945    0.6443   -0.2108 C.ar      1 BENZYL     -0.0627 
      3 C2         -4.9464    0.8649   -1.3017 C.ar      1 BENZYL     -0.0239 
      4 C3         -5.3777    0.5704   -2.6057 C.ar      1 BENZYL     -0.0096 
      5 C4         -4.4415    0.6752   -3.6469 C.ar      1 BENZYL     -0.0546 
      6 C5         -3.1625    1.1916   -3.4215 C.ar      1 BENZYL     -0.0625 
      7 C6         -2.7739    1.5584   -2.1328 C.ar      1 BENZYL     -0.0629 
      8 C7         -3.6636    1.3785   -1.0726 C.ar      1 BENZYL     -0.0568 
      9 C9         -6.7131    0.1798   -2.8194 C.ar      1 BENZYL     -0.0094 
     10 C10        -7.5151   -0.1286   -1.7130 C.ar      1 BENZYL     -0.0580 
     11 C11        -7.3449    0.0809   -4.2246 C.3       1 BENZYL      0.0949 
     12 C12        -8.7873    0.5354   -4.2292 C.2       1 BENZYL      0.2469 
     13 O13        -9.0913    1.6996   -4.4375 O.2       1 BENZYL     -0.3669 
     14 O14        -9.7152   -0.3965   -4.0045 O.3       1 BENZYL     -0.2909 
     15 C15        -7.1761   -1.3592   -4.7854 C.3       1 BENZYL     -0.0217 
     16 H1         -7.7107   -0.1024    0.4349 H         1 BENZYL      0.0596 
     17 H2         -5.4734    0.8748    0.8005 H         1 BENZYL      0.0546 
     18 H3         -4.6682    0.3538   -4.6554 H         1 BENZYL      0.0628 
     19 H4         -2.4673    1.3066   -4.2480 H         1 BENZYL      0.0602 
     20 H5         -1.7872    1.9763   -1.9563 H         1 BENZYL      0.0616 
     21 H6         -3.3439    1.6425   -0.0690 H         1 BENZYL      0.0609 
     22 H7         -8.4994   -0.5633   -1.8434 H         1 BENZYL      0.0535 
     23 H8         -6.8600    0.7999   -4.9006 H         1 BENZYL      0.0722 
     24 H9        -10.5893   -0.0228   -4.0291 H         1 BENZYL      0.2541 
     25 C25        -7.6562   -1.4747   -6.2589 C.3       1 BENZYL     -0.0490 
     26 H11        -7.7414   -2.0615   -4.1516 H         1 BENZYL      0.0316 
     27 H12        -6.1142   -1.6479   -4.7347 H         1 BENZYL      0.0316 
     28 H10        -7.0823   -0.7728   -6.8861 H         1 BENZYL      0.0268 
     29 H13        -8.7223   -1.2051   -6.3291 H         1 BENZYL      0.0268 
     30 C30        -7.4655   -2.9170   -6.8024 C.3       1 BENZYL     -0.0556 
     31 H14        -8.0372   -3.6249   -6.1791 H         1 BENZYL      0.0263 
     32 H15        -6.3994   -3.1949   -6.7504 H         1 BENZYL      0.0263 
     33 C33        -7.9470   -3.0342   -8.2720 C.3       1 BENZYL     -0.0653 
     34 H16        -7.3758   -2.3508   -8.9195 H         1 BENZYL      0.0230 
     35 H17        -9.0163   -2.7822   -8.3478 H         1 BENZYL      0.0230 
     36 H18        -7.8035   -4.0638   -8.6364 H         1 BENZYL      0.0230 
@<TRIPOS>BOND
     1    2    3 ar   
     2    3    4 ar   
     3    3    8 ar   
     4    8    7 ar   
     5    7    6 ar   
     6    6    5 ar   
     7    5    4 ar   
     8    2    1 ar   
     9    4    9 ar   
    10    9   10 ar   
    11    1   10 ar   
    12    9   11 1    
    13   11   12 1    
    14   12   13 2    
    15   12   14 1    
    16   11   15 1    
    17    1   16 1    
    18    2   17 1    
    19    5   18 1    
    20    6   19 1    
    21    7   20 1    
    22    8   21 1    
    23   10   22 1    
    24   11   23 1    
    25   14   24 1    
    26   15   25 1    
    27   15   26 1    
    28   15   27 1    
    29   25   28 1    
    30   25   29 1    
    31   25   30 1    
    32   30   31 1    
    33   30   32 1    
    34   30   33 1    
    35   33   34 1    
    36   33   35 1    
    37   33   36 1    
@<TRIPOS>SUBSTRUCTURE
     1 BENZYL      2 PERM              0 ****  ****    0 ROOT 
@<TRIPOS>NORMAL
@<TRIPOS>FF_PBC
FORCE_FIELD_SETUP_FEATURE Force Field Setup information
v1.0  0 0.000000 0.000000 0.000000 0.000000 0.000000 0.000000 NONE 0 0 0 0 1 0 0 0 0 0 0 0 0
