#	Name:			PISM00671
#	Creating user name:	baoopengkun
#	Creation time:		Fri Jan 25 19:53:36 2019

#	Modifying user name:	baoopengkun
#	Modification time:	Fri Jan 25 19:54:15 2019

@<TRIPOS>MOLECULE
PISM00671
   76    80     1     1     0
SMALL
GAST_HUCK


@<TRIPOS>ATOM
      1 C1          4.8231  -10.0906    5.5536 C.3       1 <1>        -0.0172 
      2 C2          3.5695  -11.0312    5.4419 C.3       1 <1>         0.0814 
      3 C3          3.8117  -12.4407    4.8069 C.3       1 <1>         0.0827 
      4 C4          4.7575  -12.4005    3.5650 C.3       1 <1>         0.0103 
      5 C5          5.3843  -10.9967    3.3373 C.3       1 <1>         0.1363 
      6 C6          6.0513  -10.4722    4.6586 C.3       1 <1>         0.0077 
      7 C7          7.1203   -9.3230    4.3860 C.3       1 <1>        -0.0288 
      8 C8          7.0096   -8.6087    3.0119 C.3       1 <1>        -0.0190 
      9 C9          6.9775   -9.6528    1.8449 C.3       1 <1>         0.0285 
     10 C10         6.4015  -10.9894    2.2277 C.2       1 <1>         0.1590 
     11 C11         7.3230   -8.3072    5.5666 C.3       1 <1>        -0.0489 
     12 C12         7.5603   -6.8429    5.0949 C.3       1 <1>        -0.0467 
     13 C13         8.6310   -6.7285    3.9737 C.3       1 <1>        -0.0232 
     14 C14         8.1678   -7.5859    2.7486 C.3       1 <1>        -0.0278 
     15 C15         7.7675   -6.5882    1.6342 C.3       1 <1>        -0.0226 
     16 C16         8.6836   -5.3884    1.9074 C.3       1 <1>         0.0630 
     17 C17         8.7185   -5.2441    3.4390 C.3       1 <1>        -0.0041 
     18 O18         6.7448  -12.0126    1.6561 O.2       1 <1>        -0.3296 
     19 O19         2.4800  -10.3757    4.7676 O.3       1 <1>        -0.3892 
     20 O20         2.5632  -13.0372    4.4013 O.3       1 <1>        -0.3893 
     21 O21         4.2328  -10.2316    2.8958 O.3       1 <1>        -0.3851 
     22 C22         6.8804  -11.5798    5.4052 C.3       1 <1>        -0.0576 
     23 C23         9.9821   -7.2789    4.5334 C.3       1 <1>        -0.0590 
     24 C24        10.0273   -4.4062    3.6293 C.3       1 <1>        -0.0119 
     25 O25        10.0661   -5.6341    1.6310 O.3       1 <1>        -0.3728 
     26 C26        10.7952   -4.5840    2.2810 C.3       1 <1>         0.0620 
     27 C27        12.3090   -4.9172    2.3829 C.3       1 <1>        -0.0261 
     28 C28         9.6931   -2.9061    3.8823 C.3       1 <1>        -0.0597 
     29 C29        13.1438   -3.7299    2.9419 C.3       1 <1>        -0.0484 
     30 C30        14.6749   -4.0293    2.9835 C.3       1 <1>        -0.0466 
     31 C31        15.0458   -5.0338    4.1123 C.3       1 <1>        -0.0627 
     32 C32        15.4723   -2.7097    3.1786 C.3       1 <1>        -0.0627 
     33 H1          5.1420  -10.0715    6.6086 H         1 <1>         0.0295 
     34 H2          4.4839   -9.0774    5.2854 H         1 <1>         0.0295 
     35 H3          3.1496  -11.1842    6.4531 H         1 <1>         0.0619 
     36 H4          4.2198  -13.1229    5.5744 H         1 <1>         0.0618 
     37 H5          4.1837  -12.6514    2.6579 H         1 <1>         0.0304 
     38 H6          5.5364  -13.1739    3.6591 H         1 <1>         0.0304 
     39 H7          8.0992   -9.8062    4.2212 H         1 <1>         0.0309 
     40 H8          6.0733   -8.0404    3.0755 H         1 <1>         0.0331 
     41 H9          7.9976   -9.8973    1.5095 H         1 <1>         0.0490 
     42 H10         6.4321   -9.2477    0.9789 H         1 <1>         0.0490 
     43 H11         8.1460   -8.6381    6.2215 H         1 <1>         0.0268 
     44 H12         6.4500   -8.2257    6.2240 H         1 <1>         0.0268 
     45 H13         7.8674   -6.2266    5.9561 H         1 <1>         0.0271 
     46 H14         6.6026   -6.4356    4.7302 H         1 <1>         0.0271 
     47 H15         9.0667   -8.1064    2.3765 H         1 <1>         0.0311 
     48 H16         6.7251   -6.2484    1.7441 H         1 <1>         0.0293 
     49 H17         7.9089   -6.9870    0.6185 H         1 <1>         0.0293 
     50 H18         8.3343   -4.4822    1.3810 H         1 <1>         0.0599 
     51 H19         7.8266   -4.6746    3.7521 H         1 <1>         0.0334 
     52 H20         2.6563  -10.2875    3.8371 H         1 <1>         0.2099 
     53 H21         1.9198  -13.0753    5.1014 H         1 <1>         0.2099 
     54 H22         4.3901   -9.3552    2.5731 H         1 <1>         0.2077 
     55 H23         6.2812  -12.3568    5.8881 H         1 <1>         0.0234 
     56 H24         7.4779  -11.1286    6.2152 H         1 <1>         0.0234 
     57 H25         7.5752  -12.0787    4.7096 H         1 <1>         0.0234 
     58 H26        10.2607   -6.7888    5.4790 H         1 <1>         0.0235 
     59 H27         9.9434   -8.3588    4.7265 H         1 <1>         0.0235 
     60 H28        10.7820   -7.1308    3.8007 H         1 <1>         0.0235 
     61 H29        10.6249   -4.7400    4.4890 H         1 <1>         0.0327 
     62 H30        10.6887   -3.6906    1.6415 H         1 <1>         0.0599 
     63 H31        12.6658   -5.1604    1.3680 H         1 <1>         0.0290 
     64 H32        12.4507   -5.8063    3.0070 H         1 <1>         0.0290 
     65 H33         9.1598   -2.7934    4.8400 H         1 <1>         0.0233 
     66 H34         9.0526   -2.5052    3.0810 H         1 <1>         0.0233 
     67 H35        10.6114   -2.3010    3.9267 H         1 <1>         0.0233 
     68 H36        12.8032   -3.4686    3.9569 H         1 <1>         0.0269 
     69 H37        12.9540   -2.8628    2.2859 H         1 <1>         0.0269 
     70 H38        14.9804   -4.4626    2.0145 H         1 <1>         0.0295 
     71 H39        14.7508   -4.6318    5.0936 H         1 <1>         0.0232 
     72 H40        16.1317   -5.2102    4.1228 H         1 <1>         0.0232 
     73 H41        14.5561   -6.0072    3.9694 H         1 <1>         0.0232 
     74 H42        15.2722   -2.0134    2.3493 H         1 <1>         0.0232 
     75 H43        16.5539   -2.9114    3.1992 H         1 <1>         0.0232 
     76 H44        15.1862   -2.2247    4.1244 H         1 <1>         0.0232 
@<TRIPOS>BOND
     1    2    1 1    
     2    2    3 1    
     3    3    4 1    
     4    4    5 1    
     5    5    6 1    
     6    1    6 1    
     7    6    7 1    
     8    7    8 1    
     9    8    9 1    
    10    9   10 1    
    11    5   10 1    
    12    7   11 1    
    13   11   12 1    
    14   12   13 1    
    15   13   14 1    
    16    8   14 1    
    17   14   15 1    
    18   15   16 1    
    19   16   17 1    
    20   13   17 1    
    21   10   18 2    
    22    2   19 1    
    23    3   20 1    
    24    5   21 1    
    25    6   22 1    
    26   13   23 1    
    27   17   24 1    
    28   16   25 1    
    29   24   26 1    
    30   25   26 1    
    31   26   27 1    
    32   24   28 1    
    33   27   29 1    
    34   29   30 1    
    35   30   31 1    
    36   30   32 1    
    37    1   33 1    
    38    1   34 1    
    39    2   35 1    
    40    3   36 1    
    41    4   37 1    
    42    4   38 1    
    43    7   39 1    
    44    8   40 1    
    45    9   41 1    
    46    9   42 1    
    47   11   43 1    
    48   11   44 1    
    49   12   45 1    
    50   12   46 1    
    51   14   47 1    
    52   15   48 1    
    53   15   49 1    
    54   16   50 1    
    55   17   51 1    
    56   19   52 1    
    57   20   53 1    
    58   21   54 1    
    59   22   55 1    
    60   22   56 1    
    61   22   57 1    
    62   23   58 1    
    63   23   59 1    
    64   23   60 1    
    65   24   61 1    
    66   26   62 1    
    67   27   63 1    
    68   27   64 1    
    69   28   65 1    
    70   28   66 1    
    71   28   67 1    
    72   29   68 1    
    73   29   69 1    
    74   30   70 1    
    75   31   71 1    
    76   31   72 1    
    77   31   73 1    
    78   32   74 1    
    79   32   75 1    
    80   32   76 1    
@<TRIPOS>SUBSTRUCTURE
     1 ****        2 TEMP              0 ****  ****    0 ROOT 
@<TRIPOS>NORMAL
@<TRIPOS>FF_PBC
FORCE_FIELD_SETUP_FEATURE Force Field Setup information
v1.0  0 0.000000 0.000000 0.000000 0.000000 0.000000 0.000000 NONE 0 0 0 0 1 0 0 0 0 0 0 0 0
