#	Name:			PISM00989
#	Creating user name:	baoopengkun
#	Creation time:		Fri Jan 11 22:05:04 2019

#	Modifying user name:	baoopengkun
#	Modification time:	Fri Jan 11 22:29:25 2019

@<TRIPOS>MOLECULE
PISM00989
   43    45     1     1     0
SMALL
GAST_HUCK


@<TRIPOS>ATOM
      1 N1         12.6237    8.0620  -14.6517 N.pl3     1 <1>        -0.3238 
      2 C2         12.1289    7.5626  -15.9350 C.3       1 <1>         0.0120 
      3 C3         12.5624    2.1183   -1.7933 C.2       1 <1>         0.0412 
      4 C4         13.8196    2.4725   -2.0736 C.2       1 <1>         0.0412 
      5 C5         13.2021    9.4052  -14.5842 C.3       1 <1>         0.0120 
      6 H1         12.7183    7.9792  -16.7669 H         1 <1>         0.0471 
      7 C7         11.7932    2.3479   -3.0241 C.2       1 <1>         0.2576 
      8 O8         10.5981    2.1316   -3.1260 O.2       1 <1>        -0.3492 
      9 N9         12.6009    2.8106   -3.9305 N.pl3     1 <1>        -0.1377 
     10 C10        13.8128    2.9170   -3.4740 C.2       1 <1>         0.2576 
     11 O11        14.8044    3.3051   -4.0677 O.2       1 <1>        -0.3492 
     12 C12        12.2271    3.1404   -5.1919 C.ar      1 <1>         0.0861 
     13 C13        11.4020    2.2862   -5.9325 C.ar      1 <1>        -0.0343 
     14 C14        11.0082    2.6270   -7.2298 C.ar      1 <1>        -0.0441 
     15 C15        11.4607    3.8152   -7.8114 C.ar      1 <1>         0.1020 
     16 C16        12.2689    4.6813   -7.0698 C.ar      1 <1>        -0.0441 
     17 C17        12.6585    4.3405   -5.7710 C.ar      1 <1>        -0.0343 
     18 S18        10.9778    4.2409   -9.4721 S.o2      1 <1>         0.0820 
     19 O19        10.5843    3.0307  -10.1693 O.2       1 <1>        -0.1466 
     20 O20        10.0600    5.3618   -9.3979 O.2       1 <1>        -0.1466 
     21 N21        12.3871    4.7684  -10.1280 N.am      1 <1>        -0.1959 
     22 C22        12.4270    5.6215  -11.2646 C.ar      1 <1>         0.0494 
     23 C23        11.3519    5.6816  -12.1572 C.ar      1 <1>        -0.0561 
     24 C24        11.4127    6.5115  -13.2811 C.ar      1 <1>        -0.0590 
     25 C25        12.5534    7.2808  -13.5419 C.ar      1 <1>         0.0231 
     26 C26        13.6228    7.2276  -12.6400 C.ar      1 <1>        -0.0590 
     27 C27        13.5548    6.4117  -11.5065 C.ar      1 <1>        -0.0561 
     28 H2         11.0781    7.8667  -16.0589 H         1 <1>         0.0471 
     29 H3         12.1990    6.4641  -15.9942 H         1 <1>         0.0471 
     30 H4         12.1734    1.7386   -0.8502 H         1 <1>         0.0816 
     31 H5         14.6818    2.4432   -1.4085 H         1 <1>         0.0816 
     32 H6         13.1039    9.8407  -13.5770 H         1 <1>         0.0471 
     33 H7         12.6894   10.0757  -15.2915 H         1 <1>         0.0471 
     34 H8         14.2678    9.3576  -14.8546 H         1 <1>         0.0471 
     35 H9         11.0675    1.3471   -5.5061 H         1 <1>         0.0539 
     36 H10        10.3519    1.9677   -7.7858 H         1 <1>         0.0607 
     37 H11        12.5925    5.6213   -7.5029 H         1 <1>         0.0607 
     38 H12        13.2925    5.0194   -5.2116 H         1 <1>         0.0539 
     39 H13        13.2471    4.4435   -9.7334 H         1 <1>         0.2111 
     40 H14        10.4655    5.0801  -11.9916 H         1 <1>         0.0452 
     41 H15        10.5591    6.5533  -13.9492 H         1 <1>         0.0476 
     42 H16        14.5185    7.8156  -12.8133 H         1 <1>         0.0476 
     43 H17        14.3861    6.3968  -10.8088 H         1 <1>         0.0452 
@<TRIPOS>BOND
     1   25    1 1    
     2    1    2 1    
     3    4    3 2    
     4    1    5 1    
     5    2    6 1    
     6    2   28 1    
     7    3    7 1    
     8    7    8 2    
     9    9    7 1    
    10   10    9 1    
    11   10   11 2    
    12    4   10 1    
    13    9   12 1    
    14   12   13 ar   
    15   13   14 ar   
    16   14   15 ar   
    17   16   15 ar   
    18   17   16 ar   
    19   12   17 ar   
    20   15   18 1    
    21   18   19 2    
    22   18   20 2    
    23   18   21 1    
    24   21   22 1    
    25   22   23 ar   
    26   23   24 ar   
    27   24   25 ar   
    28   26   25 ar   
    29   27   26 ar   
    30   22   27 ar   
    31    2   29 1    
    32    3   30 1    
    33    4   31 1    
    34    5   32 1    
    35    5   33 1    
    36    5   34 1    
    37   13   35 1    
    38   14   36 1    
    39   16   37 1    
    40   17   38 1    
    41   21   39 1    
    42   23   40 1    
    43   24   41 1    
    44   26   42 1    
    45   27   43 1    
@<TRIPOS>SUBSTRUCTURE
     1 ****        4 TEMP              0 ****  ****    0 ROOT 
@<TRIPOS>NORMAL
@<TRIPOS>FF_PBC
FORCE_FIELD_SETUP_FEATURE Force Field Setup information
v1.0  0 0.000000 0.000000 0.000000 0.000000 0.000000 0.000000 NONE 0 0 0 0 1 0 0 0 0 0 0 0 0
