#	Name:			PISM00382
#	Creating user name:	baoopengkun
#	Creation time:		Sun Mar 31 22:04:51 2019

#	Modifying user name:	baoopengkun
#	Modification time:	Sun Mar 31 22:08:17 2019

@<TRIPOS>MOLECULE
PISM00382
   94    95     1     1     0
SMALL
GAST_HUCK


@<TRIPOS>ATOM
      1 C1         10.1825   -0.1683   -4.5512 C.3       1 <1>        -0.0439 
      2 C2         10.9002    0.8539   -3.6209 C.3       1 <1>         0.0170 
      3 C3         10.4977    2.2483   -3.9892 C.2       1 <1>         0.1401 
      4 C4         10.8275    2.6423   -5.4039 C.ar      1 <1>         0.0312 
      5 C5         10.9852    1.6079   -6.3307 C.ar      1 <1>        -0.0611 
      6 C6         10.2557    0.2621   -6.0765 C.3       1 <1>         0.0299 
      7 C7         10.8703   -1.5530   -4.3379 C.3       1 <1>        -0.0709 
      8 C8          8.7158   -0.3076   -4.0260 C.3       1 <1>        -0.0709 
      9 O9          9.9707    3.0172   -3.2020 O.2       1 <1>        -0.3711 
     10 C10        11.7745    1.8798   -7.4560 C.ar      1 <1>        -0.0576 
     11 C11        12.0775    3.2036   -7.7905 C.ar      1 <1>        -0.0074 
     12 C12        11.5937    4.2555   -7.0076 C.ar      1 <1>         0.1212 
     13 C13        10.9978    3.9772   -5.7774 C.ar      1 <1>         0.0066 
     14 O14        10.8547   -0.8033   -6.8434 O.3       1 <1>        -0.4653 
     15 C15         8.8639    0.5197   -6.6253 C.2       1 <1>        -0.0894 
     16 C16         8.0890   -0.4288   -7.1689 C.2       1 <1>        -0.0172 
     17 C17         6.7356   -0.1437   -7.6992 C.2       1 <1>         0.0244 
     18 C18         6.5358    1.1653   -8.4334 C.3       1 <1>        -0.0129 
     19 C19         5.7015   -0.9904   -7.5612 C.2       1 <1>         0.0649 
     20 C20         5.7133   -2.2948   -6.8559 C.2       1 <1>         0.2748 
     21 O21         6.6813   -2.6522   -6.2114 O.2       1 <1>        -0.3457 
     22 O22         4.6640   -3.1231   -6.8905 O.3       1 <1>        -0.2917 
     23 O23        11.7095    5.5706   -7.4573 O.3       1 <1>        -0.3008 
     24 C24        10.5396    6.0727   -8.1318 C.3       1 <1>         0.0765 
     25 C25        10.1610    5.1687   -9.3342 C.3       1 <1>        -0.0240 
     26 C26         9.0645    5.7856  -10.2436 C.3       1 <1>        -0.0505 
     27 C27         8.6691    4.7587  -11.3391 C.3       1 <1>        -0.0530 
     28 C28         7.6642    5.3272  -12.3779 C.3       1 <1>        -0.0531 
     29 C29         7.2717    4.2067  -13.3794 C.3       1 <1>        -0.0531 
     30 C30         6.3463    4.7051  -14.5226 C.3       1 <1>        -0.0531 
     31 C31         5.9589    3.5083  -15.4340 C.3       1 <1>        -0.0531 
     32 C32         5.1001    3.9281  -16.6583 C.3       1 <1>        -0.0531 
     33 C33         4.7184    2.6726  -17.4917 C.3       1 <1>        -0.0531 
     34 C34         3.9123    3.0205  -18.7733 C.3       1 <1>        -0.0531 
     35 C35         3.5409    1.7213  -19.5419 C.3       1 <1>        -0.0531 
     36 C36         2.7602    2.0005  -20.8547 C.3       1 <1>        -0.0531 
     37 C37         2.4032    0.6656  -21.5670 C.3       1 <1>        -0.0531 
     38 C38         1.6221    0.8974  -22.8892 C.3       1 <1>        -0.0533 
     39 C39         1.2677   -0.4502  -23.5777 C.3       1 <1>        -0.0559 
     40 H1         11.9889    0.7946   -3.7732 H         1 <1>         0.0477 
     41 H2         10.7037    0.6652   -2.5542 H         1 <1>         0.0477 
     42 H3         11.9207   -1.5227   -4.6672 H         1 <1>         0.0222 
     43 H4         10.3481   -2.3354   -4.9106 H         1 <1>         0.0222 
     44 H5         10.8570   -1.8424   -3.2761 H         1 <1>         0.0222 
     45 H6          8.1642   -1.0766   -4.5852 H         1 <1>         0.0222 
     46 H7          8.1732    0.6469   -4.1011 H         1 <1>         0.0222 
     47 H8          8.6995   -0.6123   -2.9684 H         1 <1>         0.0222 
     48 H9         12.1588    1.0868   -8.0849 H         1 <1>         0.0743 
     49 H10        12.6802    3.4230   -8.6654 H         1 <1>         0.0645 
     50 H11        10.6856    4.7818   -5.1204 H         1 <1>         0.0670 
     51 H12        10.7912   -0.7026   -7.7862 H         1 <1>         0.1810 
     52 H13         8.4703    1.5345   -6.5514 H         1 <1>         0.0514 
     53 H14         8.4761   -1.4457   -7.2147 H         1 <1>         0.1108 
     54 H15         5.7463    1.1031   -9.1975 H         1 <1>         0.0430 
     55 H16         7.4649    1.4632   -8.9431 H         1 <1>         0.0430 
     56 H17         6.2616    1.9476   -7.7098 H         1 <1>         0.0430 
     57 H18         4.7474   -0.6985   -7.9982 H         1 <1>         0.0983 
     58 H19         3.9208   -2.8226   -7.3973 H         1 <1>         0.2518 
     59 H20        10.7830    7.0858   -8.4892 H         1 <1>         0.0626 
     60 H21         9.6946    6.1490   -7.4272 H         1 <1>         0.0626 
     61 H22         9.8015    4.1991   -8.9535 H         1 <1>         0.0292 
     62 H23        11.0675    4.9938   -9.9357 H         1 <1>         0.0292 
     63 H24         9.4482    6.7064  -10.7130 H         1 <1>         0.0266 
     64 H25         8.1782    6.0439   -9.6412 H         1 <1>         0.0266 
     65 H26         8.2238    3.8755  -10.8502 H         1 <1>         0.0265 
     66 H27         9.5791    4.4339  -11.8714 H         1 <1>         0.0265 
     67 H28         8.1299    6.1673  -12.9191 H         1 <1>         0.0265 
     68 H29         6.7624    5.7001  -11.8648 H         1 <1>         0.0265 
     69 H30         6.7610    3.4013  -12.8254 H         1 <1>         0.0265 
     70 H31         8.1886    3.7882  -13.8270 H         1 <1>         0.0265 
     71 H32         6.8731    5.4711  -15.1154 H         1 <1>         0.0265 
     72 H33         5.4360    5.1585  -14.0969 H         1 <1>         0.0265 
     73 H34         5.3966    2.7725  -14.8350 H         1 <1>         0.0265 
     74 H35         6.8783    3.0219  -15.8006 H         1 <1>         0.0265 
     75 H36         5.6736    4.6295  -17.2863 H         1 <1>         0.0265 
     76 H37         4.1848    4.4373  -16.3147 H         1 <1>         0.0265 
     77 H38         4.1179    1.9946  -16.8622 H         1 <1>         0.0265 
     78 H39         5.6386    2.1416  -17.7877 H         1 <1>         0.0265 
     79 H40         4.5194    3.6742  -19.4213 H         1 <1>         0.0265 
     80 H41         2.9939    3.5638  -18.4958 H         1 <1>         0.0265 
     81 H42         2.9252    1.0827  -18.8879 H         1 <1>         0.0265 
     82 H43         4.4636    1.1709  -19.7872 H         1 <1>         0.0265 
     83 H44         3.3767    2.6237  -21.5229 H         1 <1>         0.0265 
     84 H45         1.8359    2.5533  -20.6213 H         1 <1>         0.0265 
     85 H46         1.7879    0.0496  -20.8902 H         1 <1>         0.0265 
     86 H47         3.3311    0.1123  -21.7887 H         1 <1>         0.0265 
     87 H48         2.2358    1.5061  -23.5734 H         1 <1>         0.0265 
     88 H49         0.6943    1.4516  -22.6719 H         1 <1>         0.0265 
     89 H50         2.1953   -1.0032  -23.8011 H         1 <1>         0.0263 
     90 C90         0.4827   -0.2230  -24.8960 C.3       1 <1>        -0.0653 
     91 H52         0.6581   -1.0648  -22.8942 H         1 <1>         0.0263 
     92 H51         1.0871    0.3713  -25.5989 H         1 <1>         0.0230 
     93 H53        -0.4573    0.3141  -24.6938 H         1 <1>         0.0230 
     94 H54         0.2395   -1.1869  -25.3714 H         1 <1>         0.0230 
@<TRIPOS>BOND
     1    2    1 1    
     2    2    3 1    
     3    3    4 1    
     4    4    5 ar   
     5    5    6 1    
     6    1    6 1    
     7    1    7 1    
     8    1    8 1    
     9    3    9 2    
    10    5   10 ar   
    11   10   11 ar   
    12   11   12 ar   
    13   12   13 ar   
    14    4   13 ar   
    15    6   14 1    
    16    6   15 1    
    17   15   16 2    
    18   16   17 1    
    19   17   18 1    
    20   17   19 2    
    21   19   20 1    
    22   20   21 2    
    23   20   22 1    
    24   12   23 1    
    25   23   24 1    
    26   24   25 1    
    27   25   26 1    
    28   26   27 1    
    29   27   28 1    
    30   28   29 1    
    31   29   30 1    
    32   30   31 1    
    33   31   32 1    
    34   32   33 1    
    35   33   34 1    
    36   34   35 1    
    37   35   36 1    
    38   36   37 1    
    39   37   38 1    
    40   38   39 1    
    41    2   40 1    
    42    2   41 1    
    43    7   42 1    
    44    7   43 1    
    45    7   44 1    
    46    8   45 1    
    47    8   46 1    
    48    8   47 1    
    49   10   48 1    
    50   11   49 1    
    51   13   50 1    
    52   14   51 1    
    53   15   52 1    
    54   16   53 1    
    55   18   54 1    
    56   18   55 1    
    57   18   56 1    
    58   19   57 1    
    59   22   58 1    
    60   24   59 1    
    61   24   60 1    
    62   25   61 1    
    63   25   62 1    
    64   26   63 1    
    65   26   64 1    
    66   27   65 1    
    67   27   66 1    
    68   28   67 1    
    69   28   68 1    
    70   29   69 1    
    71   29   70 1    
    72   30   71 1    
    73   30   72 1    
    74   31   73 1    
    75   31   74 1    
    76   32   75 1    
    77   32   76 1    
    78   33   77 1    
    79   33   78 1    
    80   34   79 1    
    81   34   80 1    
    82   35   81 1    
    83   35   82 1    
    84   36   83 1    
    85   36   84 1    
    86   37   85 1    
    87   37   86 1    
    88   38   87 1    
    89   38   88 1    
    90   39   89 1    
    91   39   90 1    
    92   39   91 1    
    93   90   92 1    
    94   90   93 1    
    95   90   94 1    
@<TRIPOS>SUBSTRUCTURE
     1 ****        2 TEMP              0 ****  ****    0 ROOT 
@<TRIPOS>NORMAL
@<TRIPOS>FF_PBC
FORCE_FIELD_SETUP_FEATURE Force Field Setup information
v1.0  0 0.000000 0.000000 0.000000 0.000000 0.000000 0.000000 NONE 0 0 0 0 1 0 0 0 0 0 0 0 0
