#	Name:			PISM00400
#	Creating user name:	malab
#	Creation time:		Tue Apr 02 20:32:38 2019

#	Modifying user name:	malab
#	Modification time:	Tue Apr 02 20:33:36 2019

@<TRIPOS>MOLECULE
PISM00400
   42    43     1     1     0
SMALL
GAST_HUCK


@<TRIPOS>ATOM
      1 C1          9.2354    1.2201    0.0906 C.2       1 <1>         0.0561 
      2 C2         10.4617    0.7518   -0.2056 C.2       1 <1>        -0.0185 
      3 N3         10.4172    0.8192   -1.6341 N.2       1 <1>        -0.3250 
      4 C4          9.3099    1.2628   -2.0161 C.2       1 <1>         0.1177 
      5 N5          8.5394    1.5264   -0.9908 N.pl3     1 <1>        -0.1979 
      6 C6          7.3049    2.0111   -1.0272 C.2       1 <1>         0.1189 
      7 C7          6.4965    2.2890    0.2603 C.3       1 <1>         0.1350 
      8 O8          6.7518    3.5171    0.9868 O.3       1 <1>        -0.3592 
      9 H1          8.9850    1.2824    1.1374 H         1 <1>         0.0880 
     10 H2         11.2691    0.4140    0.4437 H         1 <1>         0.0464 
     11 C11         6.7249    2.2603   -2.2243 C.2       1 <1>        -0.0352 
     12 C12         5.0498    4.1605   -2.1158 C.ar      1 <1>        -0.0675 
     13 C13         3.7569    4.6609   -2.2961 C.ar      1 <1>        -0.0571 
     14 C14         2.7650    3.8503   -2.8558 C.ar      1 <1>         0.0312 
     15 C15         3.0691    2.5417   -3.2397 C.ar      1 <1>        -0.0571 
     16 C16         4.3599    2.0395   -3.0510 C.ar      1 <1>        -0.0675 
     17 Cl17        1.1428    4.4737   -3.0764 Cl        1 <1>        -0.0783 
     18 C18         5.3458    2.8383   -2.4636 C.ar      1 <1>        -0.0510 
     19 C19         5.7632    1.1032    0.9994 C.3       1 <1>         0.0050 
     20 C20         6.6998    0.0251    1.6182 C.3       1 <1>        -0.0551 
     21 C21         4.8811    1.6714    2.1574 C.3       1 <1>        -0.0551 
     22 C22         4.8316    0.3583   -0.0124 C.3       1 <1>        -0.0551 
     23 H3          9.1909    1.3485   -3.0938 H         1 <1>         0.1245 
     24 H4          5.5840    2.7794   -0.0832 H         1 <1>         0.0855 
     25 H5          7.1609    2.0750   -3.1992 H         1 <1>         0.0307 
     26 H6          5.8245    4.8005   -1.7037 H         1 <1>         0.0541 
     27 H7          3.5200    5.6784   -2.0033 H         1 <1>         0.0600 
     28 H8          2.3015    1.9166   -3.6843 H         1 <1>         0.0600 
     29 H9          4.5957    1.0257   -3.3586 H         1 <1>         0.0541 
     30 H30         7.3105    0.4449    2.4292 H         1 <1>         0.0238 
     31 H10         7.3413   -0.4251    0.8471 H         1 <1>         0.0238 
     32 H11         6.1096   -0.7912    2.0630 H         1 <1>         0.0238 
     33 H12         4.1291    2.3836    1.7827 H         1 <1>         0.0238 
     34 H13         5.5095    2.1945    2.8944 H         1 <1>         0.0238 
     35 H14         4.3460    0.8622    2.6797 H         1 <1>         0.0238 
     36 H15         5.4217   -0.0481   -0.8478 H         1 <1>         0.0238 
     37 H16         4.0604    1.0249   -0.4277 H         1 <1>         0.0238 
     38 H17         4.3062   -0.4801    0.4704 H         1 <1>         0.0238 
     39 C39         7.9634    3.6240    1.7457 C.3       1 <1>         0.0405 
     40 H18         8.0347    2.8578    2.5314 H         1 <1>         0.0527 
     41 H19         7.9271    4.6030    2.2465 H         1 <1>         0.0527 
     42 H20         8.8492    3.6238    1.0933 H         1 <1>         0.0527 
@<TRIPOS>BOND
     1    1    2 2    
     2    2    3 1    
     3    4    3 2    
     4    5    4 1    
     5    5    1 1    
     6    6    5 1    
     7    6    7 1    
     8    7    8 1    
     9    1    9 1    
    10    2   10 1    
    11    4   23 1    
    12   11    6 2    
    13   18   12 ar   
    14   12   13 ar   
    15   13   14 ar   
    16   15   14 ar   
    17   16   15 ar   
    18   18   16 ar   
    19   11   18 1    
    20   14   17 1    
    21    7   19 1    
    22   19   20 1    
    23   19   21 1    
    24   19   22 1    
    25    7   24 1    
    26   11   25 1    
    27   12   26 1    
    28   13   27 1    
    29   15   28 1    
    30   16   29 1    
    31   20   30 1    
    32   20   31 1    
    33   20   32 1    
    34   21   33 1    
    35   21   34 1    
    36   21   35 1    
    37   22   36 1    
    38   22   37 1    
    39   22   38 1    
    40    8   39 1    
    41   39   40 1    
    42   39   41 1    
    43   39   42 1    
@<TRIPOS>SUBSTRUCTURE
     1 ****        2 TEMP              0 ****  ****    0 ROOT 
@<TRIPOS>NORMAL
@<TRIPOS>FF_PBC
FORCE_FIELD_SETUP_FEATURE Force Field Setup information
v1.0  0 0.000000 0.000000 0.000000 0.000000 0.000000 0.000000 NONE 0 0 0 0 1 0 0 0 0 0 0 0 0
