#	Name:			PISM01211
#	Creating user name:	14062
#	Creation time:		Sun Apr 07 00:55:19 2019

#	Modifying user name:	14062
#	Modification time:	Sun Apr 07 00:56:48 2019

@<TRIPOS>MOLECULE
PISM01211
   45    47     2     1     0
SMALL
GAST_HUCK


@<TRIPOS>ATOM
      1 N1        -13.9896   12.4673   -2.2154 N.3       1 BENZYL     -0.2774 
      2 C1        -13.3629   11.2027   -2.6936 C.3       1 BENZYL      0.0521 
      3 C2        -14.0346   10.6627   -3.9686 C.ar      1 BENZYL      0.0022 
      4 C3        -14.4898    9.3422   -4.0555 C.ar      1 BENZYL     -0.0389 
      5 C4        -15.1016    8.8974   -5.2305 C.ar      1 BENZYL     -0.0404 
      6 C5        -15.2235    9.7728   -6.3125 C.ar      1 BENZYL      0.0042 
      7 N7        -14.7561   11.0339   -6.2194 N.ar      1 BENZYL     -0.3044 
      8 C7        -14.1994   11.4961   -5.0807 C.ar      1 BENZYL      0.0140 
      9 C9        -11.8564   11.3772   -3.0306 C.3       1 BENZYL     -0.0261 
     10 C10       -11.0857   12.0010   -1.8448 C.3       1 BENZYL     -0.0485 
     11 C11       -11.7416   13.3580   -1.5020 C.3       1 BENZYL     -0.0397 
     12 C12       -13.2259   13.1330   -1.1261 C.3       1 BENZYL      0.0033 
     13 C1        -15.4231   12.3280   -1.8310 C.3       2 BENZYL      0.0320 
     14 C2        -16.3365   11.9494   -3.0031 C.ar      2 BENZYL     -0.0355 
     15 C3        -16.5540   12.8674   -4.0344 C.ar      2 BENZYL     -0.0656 
     16 C4        -17.3218   12.5092   -5.1455 C.ar      2 BENZYL     -0.0668 
     17 C5        -17.8924   11.2349   -5.2437 C.ar      2 BENZYL     -0.0500 
     18 C6        -17.7290   10.3426   -4.1763 C.ar      2 BENZYL     -0.0668 
     19 C7        -16.9593   10.6983   -3.0650 C.ar      2 BENZYL     -0.0656 
     20 C20       -18.6646   10.8916   -6.5303 C.3       2 BENZYL     -0.0251 
     21 C21       -19.1242    9.4166   -6.6670 C.3       2 BENZYL     -0.0563 
     22 H1        -13.4410   10.4583   -1.8835 H         1 BENZYL      0.0642 
     23 H2        -14.3756    8.6608   -3.2193 H         1 BENZYL      0.0678 
     24 H3        -15.4793    7.8826   -5.3034 H         1 BENZYL      0.0693 
     25 H4        -15.6935    9.4459   -7.2336 H         1 BENZYL      0.0767 
     26 H5        -13.8829   12.5321   -5.0381 H         1 BENZYL      0.0766 
     27 H6        -11.7387   12.0376   -3.9044 H         1 BENZYL      0.0304 
     28 H7        -11.4159   10.3984   -3.2847 H         1 BENZYL      0.0304 
     29 H8        -10.0277   12.1520   -2.1184 H         1 BENZYL      0.0268 
     30 H9        -11.1236   11.3283   -0.9721 H         1 BENZYL      0.0268 
     31 H10       -11.6841   14.0347   -2.3706 H         1 BENZYL      0.0278 
     32 H11       -11.2051   13.8294   -0.6611 H         1 BENZYL      0.0278 
     33 H12       -13.6611   14.1230   -0.9095 H         1 BENZYL      0.0430 
     34 H13       -13.2761   12.5281   -0.2051 H         1 BENZYL      0.0430 
     35 H14       -15.5242   11.5958   -1.0143 H         2 BENZYL      0.0578 
     36 H15       -15.8198   13.2854   -1.4579 H         2 BENZYL      0.0578 
     37 H16       -16.1184   13.8599   -3.9773 H         2 BENZYL      0.0540 
     38 H17       -17.4700   13.2315   -5.9421 H         2 BENZYL      0.0540 
     39 H18       -18.1887    9.3623   -4.1872 H         2 BENZYL      0.0540 
     40 H19       -16.8441    9.9895   -2.2515 H         2 BENZYL      0.0540 
     41 H20       -18.0062   11.1268   -7.3828 H         2 BENZYL      0.0410 
     42 H21       -19.5463   11.5505   -6.5825 H         2 BENZYL      0.0410 
     43 H22       -19.6019    9.2652   -7.6480 H         2 BENZYL      0.0250 
     44 H23       -19.8605    9.1628   -5.8889 H         2 BENZYL      0.0250 
     45 H24       -18.2631    8.7343   -6.5937 H         2 BENZYL      0.0250 
@<TRIPOS>BOND
     1    2    3 1    
     2    3    4 ar   
     3    3    8 ar   
     4    8    7 ar   
     5    7    6 ar   
     6    6    5 ar   
     7    5    4 ar   
     8    2    1 1    
     9    2    9 1    
    10    9   10 1    
    11   10   11 1    
    12   11   12 1    
    13    1   12 1    
    14   13   14 1    
    15   14   15 ar   
    16   14   19 ar   
    17   19   18 ar   
    18   18   17 ar   
    19   17   16 ar   
    20   16   15 ar   
    21    1   13 1    
    22   17   20 1    
    23   20   21 1    
    24    2   22 1    
    25    4   23 1    
    26    5   24 1    
    27    6   25 1    
    28    8   26 1    
    29    9   27 1    
    30    9   28 1    
    31   10   29 1    
    32   10   30 1    
    33   11   31 1    
    34   11   32 1    
    35   12   33 1    
    36   12   34 1    
    37   13   35 1    
    38   13   36 1    
    39   15   37 1    
    40   16   38 1    
    41   18   39 1    
    42   19   40 1    
    43   20   41 1    
    44   20   42 1    
    45   21   43 1    
    46   21   44 1    
    47   21   45 1    
@<TRIPOS>SUBSTRUCTURE
     1 BENZYL      2 PERM              0 ****  ****    1 ROOT 
     2 BENZYL     13 PERM              0 ****  ****    1  
@<TRIPOS>NORMAL
@<TRIPOS>FF_PBC
FORCE_FIELD_SETUP_FEATURE Force Field Setup information
v1.0  0 0.000000 0.000000 0.000000 0.000000 0.000000 0.000000 NONE 0 0 0 0 1 0 0 0 0 0 0 0 0
