#	Name:			PISM00899.1
#	Creating user name:	baoopengkun
#	Creation time:		Fri Dec 14 10:03:55 2018

#	Modifying user name:	baoopengkun
#	Modification time:	Fri Dec 14 10:17:19 2018

@<TRIPOS>MOLECULE
PISM00899.1
   37    38     1     1     0
SMALL
GAST_HUCK


@<TRIPOS>ATOM
      1 C1         16.3535   11.2920   -1.6864 C.ar      1 <1>        -0.0603 
      2 C2         17.2004   10.8653   -0.6593 C.ar      1 <1>        -0.0686 
      3 C3         18.5866   10.9551   -0.8131 C.ar      1 <1>        -0.0687 
      4 C4         19.1234   11.4700   -1.9964 C.ar      1 <1>        -0.0686 
      5 C5         18.2750   11.8969   -3.0221 C.ar      1 <1>        -0.0603 
      6 C6         16.8861   11.8156   -2.8700 C.ar      1 <1>        -0.0411 
      7 N7         14.7542   11.5848   -6.0125 N.am      1 <1>        -0.2498 
      8 C8         13.4182   11.6880   -5.7978 C.2       1 <1>         0.3271 
      9 O9         12.6474   12.0811   -6.6583 O.2       1 <1>        -0.3772 
     10 O10        13.0057   11.3401   -4.5711 O.3       1 <1>        -0.2137 
     11 C11        11.5817   11.4036   -4.3871 C.3       1 <1>         0.2419 
     12 C12        10.9993   12.7731   -4.6475 C.2       1 <1>        -0.0022 
     13 C13        10.0306   12.6902   -5.5582 C.2       1 <1>         0.0291 
     14 C14         9.9884   11.2700   -5.8947 C.2       1 <1>         0.2494 
     15 O15        10.8764   10.5063   -5.2683 O.3       1 <1>        -0.2315 
     16 C16         9.1855   13.7960   -6.1282 C.3       1 <1>        -0.0323 
     17 O17         9.1897   10.8095   -6.6926 O.2       1 <1>        -0.3691 
     18 C18        15.6329   11.1119   -4.9383 C.3       1 <1>         0.0450 
     19 C19        15.2639   11.9913   -7.3229 C.3       1 <1>         0.0247 
     20 C20        15.9535   12.2933   -3.9914 C.3       1 <1>         0.0013 
     21 H1         15.2783   11.2129   -1.5600 H         1 <1>         0.0557 
     22 H2         16.7817   10.4636    0.2585 H         1 <1>         0.0599 
     23 H3         19.2451   10.6254   -0.0153 H         1 <1>         0.0559 
     24 H4         20.2002   11.5381   -2.1186 H         1 <1>         0.0599 
     25 H5         18.7018   12.2909   -3.9389 H         1 <1>         0.0557 
     26 H6         11.3607   11.1127   -3.3479 H         1 <1>         0.1194 
     27 H7         11.3298   13.6891   -4.1601 H         1 <1>         0.0704 
     28 H8          9.7191   14.7569   -6.0764 H         1 <1>         0.0347 
     29 H9          8.2483   13.8712   -5.5575 H         1 <1>         0.0347 
     30 H10         8.9488   13.5771   -7.1802 H         1 <1>         0.0347 
     31 H11        16.5761   10.7202   -5.3522 H         1 <1>         0.0544 
     32 H12        15.1743   10.2842   -4.3723 H         1 <1>         0.0544 
     33 H13        14.8986   11.2955   -8.0940 H         1 <1>         0.0485 
     34 H14        16.3638   11.9983   -7.3555 H         1 <1>         0.0485 
     35 H15        14.9159   13.0067   -7.5700 H         1 <1>         0.0485 
     36 H16        15.0240   12.6956   -3.5594 H         1 <1>         0.0446 
     37 H17        16.4292   13.1039   -4.5659 H         1 <1>         0.0446 
@<TRIPOS>BOND
     1    1    2 ar   
     2    2    3 ar   
     3    4    3 ar   
     4    5    4 ar   
     5    6    5 ar   
     6    6    1 ar   
     7    7    8 am   
     8   18    7 1    
     9    8    9 2    
    10    8   10 1    
    11   10   11 1    
    12   11   12 1    
    13   12   13 2    
    14   14   13 1    
    15   15   14 1    
    16   11   15 1    
    17   13   16 1    
    18   14   17 2    
    19   20   18 1    
    20    7   19 1    
    21    6   20 1    
    22    1   21 1    
    23    2   22 1    
    24    3   23 1    
    25    4   24 1    
    26    5   25 1    
    27   11   26 1    
    28   12   27 1    
    29   16   28 1    
    30   16   29 1    
    31   16   30 1    
    32   18   31 1    
    33   18   32 1    
    34   19   33 1    
    35   19   34 1    
    36   19   35 1    
    37   20   36 1    
    38   20   37 1    
@<TRIPOS>SUBSTRUCTURE
     1 ****        2 TEMP              0 ****  ****    0 ROOT 
@<TRIPOS>NORMAL
@<TRIPOS>FF_PBC
FORCE_FIELD_SETUP_FEATURE Force Field Setup information
v1.0  0 0.000000 0.000000 0.000000 0.000000 0.000000 0.000000 NONE 0 0 0 0 1 0 0 0 0 0 0 0 0
