#	Name:			PISM01065
#	Creating user name:	14062
#	Creation time:		Thu Jul 11 23:33:32 2019

#	Modifying user name:	14062
#	Modification time:	Thu Jul 11 23:37:28 2019

@<TRIPOS>MOLECULE
PISM01065
   58    61     1     2     0
SMALL
GAST_HUCK


@<TRIPOS>ATOM
      1 C1         -3.7425    3.8987    2.1467 C.3       1 <1>        -0.0092 
      2 C2         -3.8471    5.2202    2.9798 C.3       1 <1>         0.0918 
      3 C3         -5.3211    5.4600    3.4238 C.3       1 <1>        -0.0210 
      4 C4         -4.1522    4.0075    0.6377 C.3       1 <1>        -0.0441 
      5 C5         -5.5112    3.2645    0.5503 C.3       1 <1>        -0.0345 
      6 C6         -6.0685    3.3505    2.0003 C.3       1 <1>        -0.0203 
      7 C7         -4.7678    2.8772    2.7200 C.3       1 <1>        -0.0411 
      8 C8         -6.5161    3.7015   -0.5463 C.3       1 <1>        -0.0494 
      9 C9         -7.8198    2.8679   -0.3924 C.3       1 <1>        -0.0488 
     10 C10        -8.3970    2.9188    1.0642 C.3       1 <1>        -0.0253 
     11 C11        -3.2572    6.4698    2.2560 C.3       1 <1>         0.0732 
     12 O12        -4.2023    7.1048    1.3706 O.3       1 <1>        -0.3922 
     13 O13        -3.0059    5.0872    4.1487 O.3       1 <1>        -0.3860 
     14 C14        -6.3281    4.8690    2.3948 C.3       1 <1>        -0.0439 
     15 C15        -7.3525    2.4303    2.1521 C.3       1 <1>        -0.0226 
     16 C16        -9.8736    2.3607    1.1766 C.3       1 <1>         0.0203 
     17 C17        -7.9285    2.5597    3.6139 C.3       1 <1>        -0.0445 
     18 C18        -9.4357    2.9270    3.6496 C.3       1 <1>        -0.0257 
     19 C19       -10.2211    2.0190    2.6673 C.3       1 <1>         0.0630 
     20 C20       -10.8944    3.4471    0.6765 C.3       1 <1>         0.0522 
     21 O21       -12.2030    2.8878    0.4392 O.3       1 <1>        -0.3944 
     22 O22       -11.6350    2.1605    2.9072 O.3       1 <1>        -0.3912 
     23 C23       -10.1131    1.0996    0.2853 C.3       1 <1>        -0.0548 
     24 C24        -7.0123    0.9058    1.9666 C.3       1 <1>        -0.0588 
     25 H1         -2.7057    3.5285    2.2316 H         1 <1>         0.0329 
     26 H2         -5.4996    6.5381    3.5735 H         1 <1>         0.0294 
     27 H3         -5.5115    4.9902    4.4011 H         1 <1>         0.0294 
     28 H4         -3.4039    3.5246   -0.0145 H         1 <1>         0.0272 
     29 H5         -4.2655    5.0333    0.2741 H         1 <1>         0.0272 
     30 H6         -5.2582    2.2249    0.2860 H         1 <1>         0.0306 
     31 H7         -4.4227    1.8761    2.4165 H         1 <1>         0.0274 
     32 H8         -4.8577    2.8486    3.8144 H         1 <1>         0.0274 
     33 H9         -6.0709    3.5234   -1.5402 H         1 <1>         0.0268 
     34 H10        -6.7597    4.7719   -0.5004 H         1 <1>         0.0268 
     35 H11        -7.6179    1.8313   -0.6952 H         1 <1>         0.0268 
     36 H12        -8.5322    3.2699   -1.1284 H         1 <1>         0.0268 
     37 H13        -8.5193    3.9961    1.2326 H         1 <1>         0.0313 
     38 H14        -2.3359    6.1763    1.7259 H         1 <1>         0.0586 
     39 H15        -2.9857    7.2135    3.0256 H         1 <1>         0.0586 
     40 H16        -3.8504    7.8732    0.9306 H         1 <1>         0.2095 
     41 H17        -3.2151    4.3506    4.7123 H         1 <1>         0.2103 
     42 H18        -7.3227    5.0530    2.8240 H         1 <1>         0.0272 
     43 H19        -6.2687    5.5393    1.5303 H         1 <1>         0.0272 
     44 H20        -7.3796    3.2777    4.2391 H         1 <1>         0.0272 
     45 H21        -7.8355    1.6107    4.1682 H         1 <1>         0.0272 
     46 H22        -9.5928    3.9867    3.3999 H         1 <1>         0.0290 
     47 H23        -9.8099    2.7825    4.6775 H         1 <1>         0.0290 
     48 H24        -9.9658    0.9690    2.8858 H         1 <1>         0.0599 
     49 H25       -10.5661    3.8910   -0.2754 H         1 <1>         0.0563 
     50 H26       -10.9719    4.2631    1.4140 H         1 <1>         0.0563 
     51 H27       -12.8528    3.5284    0.1662 H         1 <1>         0.2094 
     52 H28       -11.9118    1.9209    3.7858 H         1 <1>         0.2098 
     53 H29        -9.3541    0.3226    0.4291 H         1 <1>         0.0237 
     54 H30       -10.1209    1.3640   -0.7827 H         1 <1>         0.0237 
     55 H31       -11.0905    0.6505    0.5206 H         1 <1>         0.0237 
     56 H32        -6.6481    0.6181    0.9756 H         1 <1>         0.0235 
     57 H33        -7.8841    0.2746    2.1657 H         1 <1>         0.0235 
     58 H34        -6.2590    0.5787    2.6959 H         1 <1>         0.0235 
@<TRIPOS>BOND
     1    2    1 1    
     2    2    3 1    
     3    1    4 1    
     4    4    5 1    
     5    5    6 1    
     6    6    7 1    
     7    1    7 1    
     8    5    8 1    
     9    8    9 1    
    10    9   10 1    
    11    2   11 1    
    12   11   12 1    
    13    2   13 1    
    14    6   14 1    
    15    3   14 1    
    16   10   15 1    
    17    6   15 1    
    18   10   16 1    
    19   15   17 1    
    20   17   18 1    
    21   18   19 1    
    22   16   19 1    
    23   16   20 1    
    24   20   21 1    
    25   19   22 1    
    26   16   23 1    
    27   15   24 1    
    28    1   25 1    
    29    3   26 1    
    30    3   27 1    
    31    4   28 1    
    32    4   29 1    
    33    5   30 1    
    34    7   31 1    
    35    7   32 1    
    36    8   33 1    
    37    8   34 1    
    38    9   35 1    
    39    9   36 1    
    40   10   37 1    
    41   11   38 1    
    42   11   39 1    
    43   12   40 1    
    44   13   41 1    
    45   14   42 1    
    46   14   43 1    
    47   17   44 1    
    48   17   45 1    
    49   18   46 1    
    50   18   47 1    
    51   19   48 1    
    52   20   49 1    
    53   20   50 1    
    54   21   51 1    
    55   22   52 1    
    56   23   53 1    
    57   23   54 1    
    58   23   55 1    
    59   24   56 1    
    60   24   57 1    
    61   24   58 1    
@<TRIPOS>SUBSTRUCTURE
     1 ****        2 TEMP              0 ****  ****    0 ROOT 
@<TRIPOS>NORMAL
@<TRIPOS>FF_PBC
FORCE_FIELD_SETUP_FEATURE Force Field Setup information
v1.0  0 0.000000 0.000000 0.000000 0.000000 0.000000 0.000000 NONE 0 0 0 0 1 0 0 0 0 0 0 0 0
@<TRIPOS>RENDERING_ATTRS
ANTIALIASED_LINES 
*
