#	Name:			PISM00965
#	Creating user name:	baoopengkun
#	Creation time:		Thu Dec 13 10:35:31 2018

#	Modifying user name:	baoopengkun
#	Modification time:	Thu Dec 13 11:06:00 2018

@<TRIPOS>MOLECULE
PISM00965
   44    46     1     1     0
SMALL
GAST_HUCK


@<TRIPOS>ATOM
      1 C1         -7.6132   12.1905   -7.6265 C.ar      1 <1>        -0.0173 
      2 C2         -7.5173   12.0481   -6.2391 C.ar      1 <1>        -0.0319 
      3 C3         -8.5323   11.4000   -5.5324 C.ar      1 <1>        -0.0380 
      4 C4         -9.6371   10.8847   -6.2143 C.ar      1 <1>        -0.0432 
      5 C5         -9.7406   10.9958   -7.6071 C.ar      1 <1>        -0.0263 
      6 C6         -8.7241   11.6678   -8.2999 C.ar      1 <1>        -0.0366 
      7 C7        -10.9758   10.3845   -8.3109 C.3       1 <1>         0.0857 
      8 O8        -11.4131    9.2336   -7.5635 O.3       1 <1>        -0.4205 
      9 C9        -10.6893    9.9135   -9.7721 C.3       1 <1>        -0.0353 
     10 C10       -12.1130   11.4428   -8.2667 C.3       1 <1>         0.0824 
     11 N11       -12.2153   12.0554   -6.9488 N.pl3     1 <1>        -0.1836 
     12 N12       -13.0090   11.6450   -5.9201 N.2       1 <1>        -0.1909 
     13 C13       -12.9139   12.3894   -4.8818 C.2       1 <1>         0.0618 
     14 N14       -11.9647   13.3673   -5.3372 N.2       1 <1>        -0.2870 
     15 C15       -11.6147   13.1227   -6.5169 C.2       1 <1>         0.1269 
     16 C16       -11.8279    9.0534  -10.3854 C.3       1 <1>        -0.0238 
     17 C17       -11.4076    8.5890  -11.7877 C.ar      1 <1>        -0.0434 
     18 C18       -11.6947    9.3767  -12.9086 C.ar      1 <1>        -0.0597 
     19 C19       -11.3200    8.9502  -14.1861 C.ar      1 <1>        -0.0546 
     20 C20       -10.6511    7.7345  -14.3495 C.ar      1 <1>         0.0330 
     21 C21       -10.3560    6.9477  -13.2333 C.ar      1 <1>        -0.0546 
     22 C22       -10.7308    7.3755  -11.9563 C.ar      1 <1>        -0.0597 
     23 Cl23      -10.1834    7.1984  -15.9505 Cl        1 <1>        -0.0771 
     24 C24        -6.4960   12.9195   -8.3846 C.3       1 <1>        -0.0248 
     25 H1         -6.6558   12.4404   -5.7077 H         1 <1>         0.0803 
     26 H2         -8.4640   11.2976   -4.4535 H         1 <1>         0.0683 
     27 H3        -10.4240   10.4009   -5.6434 H         1 <1>         0.0801 
     28 H4         -8.7833   11.7976   -9.3719 H         1 <1>         0.0778 
     29 H5        -10.7491    8.5536   -7.5105 H         1 <1>         0.1962 
     30 H6         -9.7673    9.3094   -9.7678 H         1 <1>         0.0220 
     31 H7        -10.5381   10.7724  -10.4439 H         1 <1>         0.0220 
     32 H8        -13.0804   10.9692   -8.4878 H         1 <1>         0.0572 
     33 H9        -11.9314   12.2325   -9.0118 H         1 <1>         0.0572 
     34 H10       -13.4172   12.3034   -3.9201 H         1 <1>         0.0863 
     35 H11       -10.9060   13.7291   -7.0795 H         1 <1>         0.1361 
     36 H12       -12.7601    9.6328  -10.4639 H         1 <1>         0.0420 
     37 H13       -12.0374    8.1726   -9.7587 H         1 <1>         0.0420 
     38 H14       -12.2091   10.3253  -12.7919 H         1 <1>         0.0557 
     39 H15       -11.5474    9.5618  -15.0532 H         1 <1>         0.0606 
     40 H16        -9.8351    6.0042  -13.3604 H         1 <1>         0.0606 
     41 H17       -10.4914    6.7600  -11.0949 H         1 <1>         0.0557 
     42 H18        -5.6062   12.2730   -8.4157 H         1 <1>         0.0396 
     43 H19        -6.2415   13.8550   -7.8637 H         1 <1>         0.0396 
     44 H20        -6.7901   13.1677   -9.4154 H         1 <1>         0.0396 
@<TRIPOS>BOND
     1    2    1 ar   
     2    2    3 ar   
     3    3    4 ar   
     4    4    5 ar   
     5    5    6 ar   
     6    1    6 ar   
     7    5    7 1    
     8    7    8 1    
     9    7    9 1    
    10    7   10 1    
    11   10   11 1    
    12   11   12 1    
    13   12   13 2    
    14   13   14 1    
    15   14   15 2    
    16   11   15 1    
    17    9   16 1    
    18   16   17 1    
    19   17   18 ar   
    20   18   19 ar   
    21   19   20 ar   
    22   20   21 ar   
    23   21   22 ar   
    24   17   22 ar   
    25   20   23 1    
    26    1   24 1    
    27    2   25 1    
    28    3   26 1    
    29    4   27 1    
    30    6   28 1    
    31    8   29 1    
    32    9   30 1    
    33    9   31 1    
    34   10   32 1    
    35   10   33 1    
    36   13   34 1    
    37   15   35 1    
    38   16   36 1    
    39   16   37 1    
    40   18   38 1    
    41   19   39 1    
    42   21   40 1    
    43   22   41 1    
    44   24   42 1    
    45   24   43 1    
    46   24   44 1    
@<TRIPOS>SUBSTRUCTURE
     1 ****        2 TEMP              0 ****  ****    0 ROOT 
@<TRIPOS>NORMAL
@<TRIPOS>FF_PBC
FORCE_FIELD_SETUP_FEATURE Force Field Setup information
v1.0  0 0.000000 0.000000 0.000000 0.000000 0.000000 0.000000 NONE 0 0 0 0 1 0 0 0 0 0 0 0 0
