#	Name:			PISM00684
#	Creating user name:	baoopengkun
#	Creation time:		Sat Dec 08 17:22:32 2018

#	Modifying user name:	baoopengkun
#	Modification time:	Sat Dec 08 17:22:49 2018

@<TRIPOS>MOLECULE
PISM00684
   40    42     3     2     0
SMALL
GAST_HUCK


@<TRIPOS>ATOM
      1 C1         21.9977   27.6304   -6.0662 C.3       1 PHENYL      0.0575 
      2 C          22.6282   28.0191   -4.7128 C.ar      1 PHENYL     -0.0629 
      3 C          23.2789   27.0642   -3.9216 C.ar      1 PHENYL     -0.0562 
      4 C          23.9277   27.4408   -2.7420 C.ar      1 PHENYL     -0.0448 
      5 C          23.8911   28.7715   -2.3176 C.ar      1 PHENYL     -0.0449 
      6 C          23.1847   29.7174   -3.0652 C.ar      1 PHENYL     -0.0448 
      7 C          22.5403   29.3360   -4.2456 C.ar      1 PHENYL     -0.0562 
      8 C          22.6746   26.4390   -6.7704 C.ar      2 PHENYL     -0.0629 
      9 C          21.9019   25.4689   -7.4205 C.ar      2 PHENYL     -0.0562 
     10 C          22.5078   24.3689   -8.0347 C.ar      2 PHENYL     -0.0448 
     11 C          23.8990   24.2398   -8.0239 C.ar      2 PHENYL     -0.0449 
     12 C          24.6798   25.2170   -7.4015 C.ar      2 PHENYL     -0.0448 
     13 C          24.0692   26.3117   -6.7827 C.ar      2 PHENYL     -0.0562 
     14 C          22.0569   28.7575   -7.1125 C.ar      3 PHENYL     -0.0682 
     15 C          20.9749   28.9724   -7.9750 C.ar      3 PHENYL     -0.0601 
     16 C          21.0113   30.0017   -8.9199 C.ar      3 PHENYL     -0.0103 
     17 C          22.1347   30.8260   -9.0118 C.ar      3 PHENYL      0.1167 
     18 C          23.2273   30.6055   -8.1710 C.ar      3 PHENYL     -0.0103 
     19 C          23.1879   29.5759   -7.2265 C.ar      3 PHENYL     -0.0601 
     20 O20        22.1677   31.8664   -9.9404 O.3       3 PHENYL     -0.3042 
     21 C21        21.5292   33.0697   -9.4839 C.3       3 PHENYL      0.0658 
     22 O22        20.6224   27.3472   -5.7530 O.3       1 PHENYL     -0.4568 
     23 H1         23.2806   26.0194   -4.2140 H         1 PHENYL      0.0750 
     24 H2         24.4590   26.6983   -2.1542 H         1 PHENYL      0.0666 
     25 H3         24.4066   29.0686   -1.4093 H         1 PHENYL      0.0761 
     26 H4         23.1350   30.7484   -2.7282 H         1 PHENYL      0.0666 
     27 H5         21.9638   30.0719   -4.7968 H         1 PHENYL      0.0750 
     28 H6         20.8218   25.5648   -7.4574 H         2 PHENYL      0.0750 
     29 H7         21.8967   23.6149   -8.5216 H         2 PHENYL      0.0666 
     30 H8         24.3709   23.3846   -8.4979 H         2 PHENYL      0.0761 
     31 H9         25.7618   25.1258   -7.3986 H         2 PHENYL      0.0666 
     32 H10        24.6917   27.0631   -6.3100 H         2 PHENYL      0.0750 
     33 H11        20.0970   28.3371   -7.9188 H         3 PHENYL      0.0740 
     34 H12        20.1699   30.1639   -9.5852 H         3 PHENYL      0.0616 
     35 H13        24.1044   31.2383   -8.2562 H         3 PHENYL      0.0616 
     36 H14        24.0459   29.4203   -6.5820 H         3 PHENYL      0.0740 
     37 H15        21.6104   33.8265  -10.2780 H         3 PHENYL      0.0591 
     38 H16        22.0239   33.4537   -8.5779 H         3 PHENYL      0.0591 
     39 H17        20.4629   32.8950   -9.2710 H         3 PHENYL      0.0591 
     40 H18        20.5334   26.6337   -5.1296 H         1 PHENYL      0.1831 
@<TRIPOS>BOND
     1    2    3 ar   
     2    2    7 ar   
     3    7    6 ar   
     4    6    5 ar   
     5    5    4 ar   
     6    4    3 ar   
     7    2    1 1    
     8    8    9 ar   
     9    8   13 ar   
    10   13   12 ar   
    11   12   11 ar   
    12   11   10 ar   
    13   10    9 ar   
    14    1    8 1    
    15   14   15 ar   
    16   14   19 ar   
    17   19   18 ar   
    18   18   17 ar   
    19   17   16 ar   
    20   16   15 ar   
    21    1   14 1    
    22   17   20 1    
    23   20   21 1    
    24    1   22 1    
    25    3   23 1    
    26    4   24 1    
    27    5   25 1    
    28    6   26 1    
    29    7   27 1    
    30    9   28 1    
    31   10   29 1    
    32   11   30 1    
    33   12   31 1    
    34   13   32 1    
    35   15   33 1    
    36   16   34 1    
    37   18   35 1    
    38   19   36 1    
    39   21   37 1    
    40   21   38 1    
    41   21   39 1    
    42   22   40 1    
@<TRIPOS>SUBSTRUCTURE
     1 PHENYL      2 PERM              0 ****  ****    2 ROOT 
     2 PHENYL      8 PERM              0 ****  ****    1  
     3 PHENYL     14 PERM              0 ****  ****    1  
@<TRIPOS>NORMAL
@<TRIPOS>FF_PBC
FORCE_FIELD_SETUP_FEATURE Force Field Setup information
v1.0  0 0.000000 0.000000 0.000000 0.000000 0.000000 0.000000 NONE 0 0 0 0 1 0 0 0 0 0 0 0 0
@<TRIPOS>RENDERING_ATTRS
ANTIALIASED_LINES 
*
