#	Name:			PISM00072
#	Creating user name:	baoopengkun
#	Creation time:		Thu Dec 27 11:56:28 2018

#	Modifying user name:	baoopengkun
#	Modification time:	Thu Dec 27 12:02:58 2018

@<TRIPOS>MOLECULE
PISM00072
   53    54     1     1     0
SMALL
GAST_HUCK


@<TRIPOS>ATOM
      1 C1         -5.2560   14.5867    1.2041 C.3       1 <1>        -0.0475 
      2 C2         -6.3667   15.4293    0.5242 C.3       1 <1>         0.0398 
      3 C3         -7.7503   15.1147    1.0462 C.2       1 <1>         0.2002 
      4 O4         -7.8645   14.2826    1.9308 O.2       1 <1>        -0.3795 
      5 N5         -8.7698   15.7552    0.5359 N.pl3     1 <1>        -0.2421 
      6 C6        -10.0421   15.5258    0.9457 C.ar      1 <1>         0.0515 
      7 C7        -10.5354   14.2241    1.0965 C.ar      1 <1>        -0.0515 
      8 C8        -11.8399   14.0119    1.5520 C.ar      1 <1>        -0.0815 
      9 C9        -12.6688   15.1010    1.8339 C.ar      1 <1>        -0.0505 
     10 C10       -12.1987   16.4045    1.6456 C.ar      1 <1>         0.0558 
     11 C11       -10.8861   16.6098    1.2107 C.ar      1 <1>        -0.0179 
     12 N12       -12.9979   17.4694    1.8937 N.pl3     1 <1>        -0.2371 
     13 C13       -14.0987   17.6868    1.2152 C.2       1 <1>         0.1863 
     14 S14       -14.5203   16.6019   -0.0514 S.2       1 <1>        -0.2689 
     15 N15       -14.8814   18.7601    1.5041 N.am      1 <1>        -0.1930 
     16 C16       -16.0500   19.1058    0.9093 C.2       1 <1>         0.2337 
     17 O17       -16.5799   18.4310    0.0441 O.2       1 <1>        -0.3745 
     18 C18       -16.7868   20.3714    1.3055 C.ar      1 <1>         0.0462 
     19 C19       -16.1079   21.5337    1.6942 C.ar      1 <1>        -0.0498 
     20 C20       -16.8192   22.6597    2.1200 C.ar      1 <1>        -0.0268 
     21 C21       -18.9001   21.5128    1.6800 C.ar      1 <1>        -0.0268 
     22 H1         -5.2434   14.7767    2.2890 H         1 <1>         0.0255 
     23 C23       -18.1868   20.3811    1.2741 C.ar      1 <1>        -0.0498 
     24 H2         -4.2697   14.8487    0.7896 H         1 <1>         0.0255 
     25 C25       -18.2155   22.6467    2.1218 C.ar      1 <1>         0.0967 
     26 H3         -5.4351   13.5132    1.0346 H         1 <1>         0.0255 
     27 O27       -18.9241   23.7633    2.5617 O.3       1 <1>        -0.3145 
     28 C28       -19.1873   23.7634    3.9747 C.3       1 <1>         0.0717 
     29 C29       -19.9767   25.0494    4.3248 C.3       1 <1>        -0.0251 
     30 C30       -20.2980   25.1279    5.8422 C.3       1 <1>        -0.0535 
     31 C31       -21.0889   26.4174    6.1838 C.3       1 <1>        -0.0652 
     32 H4         -6.1621   16.4980    0.6960 H         1 <1>         0.0508 
     33 H5         -6.3500   15.2372   -0.5605 H         1 <1>         0.0508 
     34 H6         -8.6089   16.4728   -0.1860 H         1 <1>         0.2106 
     35 H7         -9.9128   13.3694    0.8532 H         1 <1>         0.0435 
     36 H8        -12.2104   13.0000    1.6858 H         1 <1>         0.0558 
     37 H9        -13.6763   14.9341    2.2014 H         1 <1>         0.0436 
     38 H10       -10.5209   17.6226    1.0795 H         1 <1>         0.0439 
     39 H11       -12.7026   18.1223    2.6330 H         1 <1>         0.2183 
     40 H12       -14.5866   19.3525    2.2469 H         1 <1>         0.2369 
     41 H13       -15.0249   21.5825    1.6596 H         1 <1>         0.0643 
     42 H14       -16.2925   23.5499    2.4480 H         1 <1>         0.0557 
     43 H15       -19.9848   21.5161    1.6561 H         1 <1>         0.0557 
     44 H16       -18.7291   19.5032    0.9361 H         1 <1>         0.0643 
     45 H17       -18.2382   23.7446    4.5356 H         1 <1>         0.0616 
     46 H18       -19.7813   22.8753    4.2475 H         1 <1>         0.0616 
     47 H19       -20.9138   25.0581    3.7441 H         1 <1>         0.0291 
     48 H20       -19.3778   25.9250    4.0249 H         1 <1>         0.0291 
     49 H21       -19.3584   25.1181    6.4195 H         1 <1>         0.0263 
     50 H22       -20.8950   24.2495    6.1392 H         1 <1>         0.0263 
     51 H23       -20.5036   27.3103    5.9140 H         1 <1>         0.0230 
     52 H24       -21.3061   26.4541    7.2632 H         1 <1>         0.0230 
     53 H25       -22.0427   26.4403    5.6339 H         1 <1>         0.0230 
@<TRIPOS>BOND
     1    2    1 1    
     2    2    3 1    
     3    3    4 2    
     4    3    5 1    
     5    5    6 1    
     6    6    7 ar   
     7    7    8 ar   
     8    8    9 ar   
     9   10    9 ar   
    10   11   10 ar   
    11    6   11 ar   
    12   10   12 1    
    13   12   13 1    
    14   13   14 2    
    15   13   15 am   
    16   15   16 am   
    17   16   17 2    
    18   16   18 1    
    19   18   19 ar   
    20   19   20 ar   
    21   20   25 ar   
    22   23   21 ar   
    23    1   22 1    
    24   18   23 ar   
    25    1   24 1    
    26    1   26 1    
    27   21   25 ar   
    28    2   32 1    
    29   25   27 1    
    30   27   28 1    
    31   28   29 1    
    32   29   30 1    
    33   30   31 1    
    34    2   33 1    
    35    5   34 1    
    36    7   35 1    
    37    8   36 1    
    38    9   37 1    
    39   11   38 1    
    40   12   39 1    
    41   15   40 1    
    42   19   41 1    
    43   20   42 1    
    44   21   43 1    
    45   23   44 1    
    46   28   45 1    
    47   28   46 1    
    48   29   47 1    
    49   29   48 1    
    50   30   49 1    
    51   30   50 1    
    52   31   51 1    
    53   31   52 1    
    54   31   53 1    
@<TRIPOS>SUBSTRUCTURE
     1 ****        2 TEMP              0 ****  ****    0 ROOT 
@<TRIPOS>NORMAL
@<TRIPOS>FF_PBC
FORCE_FIELD_SETUP_FEATURE Force Field Setup information
v1.0  0 0.000000 0.000000 0.000000 0.000000 0.000000 0.000000 NONE 0 0 0 0 1 0 0 0 0 0 0 0 0
