#	Name:			M01083
#	Creating user name:	XiyangLee
#	Creation time:		Tue Aug 31 18:21:55 2021

#	Modifying user name:	XiyangLee
#	Modification time:	Tue Aug 31 18:22:50 2021

@<TRIPOS>MOLECULE
M01083
   76    79     1     1     1
SMALL
GAST_HUCK
****
From 3DB ct
@<TRIPOS>ATOM
      1 N           6.4826    1.2614   -0.7019 N.pl3     1 <1>        -0.2992 
      2 C           6.2337    2.5343   -0.0088 C.3       1 <1>         0.0293 
      3 C           5.0536    2.4031    0.9936 C.3       1 <1>        -0.0329 
      4 C           3.7542    1.9543    0.2701 C.3       1 <1>        -0.0512 
      5 C           2.5697    1.8058    1.2632 C.3       1 <1>        -0.0530 
      6 C           1.2749    1.3626    0.5284 C.3       1 <1>        -0.0531 
      7 C           0.0928    1.1799    1.5193 C.3       1 <1>        -0.0531 
      8 C          -1.2039    0.7534    0.7779 C.3       1 <1>        -0.0530 
      9 C          -2.3810    0.5423    1.7694 C.3       1 <1>        -0.0512 
     10 C          -3.6799    0.1285    1.0242 C.3       1 <1>        -0.0329 
     11 C          -4.8587   -0.1038    2.0083 C.3       1 <1>         0.0293 
     12 N          -6.0572   -0.5443    1.2785 N.pl3     1 <1>        -0.2992 
     13 C          -6.6967   -1.8251    1.5901 C.3       1 <1>         0.0472 
     14 C          -6.8232   -2.6348    0.3256 C.2       1 <1>        -0.0597 
     15 C          -6.9718   -2.0428   -0.8681 C.2       1 <1>         0.0200 
     16 N          -7.0413   -2.7698   -1.9560 N.pl3     1 <1>        -0.3493 
     17 H          -6.9940   -3.7995   -1.9107 H         1 <1>         0.1661 
     18 H          -7.1167   -2.3323   -2.8821 H         1 <1>         0.1661 
     19 C          -7.0476   -0.5265   -0.8822 C.ar      1 <1>         0.0103 
     20 C          -6.5406    0.1660    0.2260 C.ar      1 <1>         0.0511 
     21 C          -6.5510    1.5673    0.2315 C.ar      1 <1>        -0.0451 
     22 C          -7.0329    2.2793   -0.8694 C.ar      1 <1>        -0.0760 
     23 C          -7.5683    1.5904   -1.9585 C.ar      1 <1>        -0.0772 
     24 C          -7.6089    0.1940   -1.9454 C.ar      1 <1>        -0.0670 
     25 H          -8.0955   -0.3078   -2.7725 H         1 <1>         0.0560 
     26 H          -7.9561    2.1400   -2.8111 H         1 <1>         0.0502 
     27 H          -6.9963    3.3646   -0.8767 H         1 <1>         0.0562 
     28 H          -6.1943    2.1274    1.0865 H         1 <1>         0.0505 
     29 H          -6.7896   -3.7215    0.4185 H         1 <1>         0.0334 
     30 C          -8.0931   -1.5671    2.2065 C.3       1 <1>        -0.0376 
     31 H          -8.7298   -1.0153    1.4981 H         1 <1>         0.0269 
     32 H          -7.9864   -0.9683    3.1240 H         1 <1>         0.0269 
     33 H          -8.5862   -2.5194    2.4564 H         1 <1>         0.0269 
     34 H          -6.1056   -2.4223    2.3043 H         1 <1>         0.0646 
     35 H          -5.0732    0.8036    2.5920 H         1 <1>         0.0518 
     36 H          -4.5249   -0.8594    2.7362 H         1 <1>         0.0518 
     37 H          -3.5077   -0.8054    0.4642 H         1 <1>         0.0284 
     38 H          -3.9379    0.9164    0.2997 H         1 <1>         0.0284 
     39 H          -2.5642    1.4770    2.3245 H         1 <1>         0.0266 
     40 H          -2.1061   -0.2420    2.4937 H         1 <1>         0.0266 
     41 H          -1.4765    1.5320    0.0464 H         1 <1>         0.0265 
     42 H          -1.0192   -0.1853    0.2299 H         1 <1>         0.0265 
     43 H          -0.0872    2.1279    2.0525 H         1 <1>         0.0265 
     44 H           0.3585    0.4104    2.2628 H         1 <1>         0.0265 
     45 H           1.0067    2.1220   -0.2244 H         1 <1>         0.0265 
     46 H           1.4603    0.4094    0.0060 H         1 <1>         0.0265 
     47 H           2.8300    1.0562    2.0286 H         1 <1>         0.0265 
     48 H           2.3921    2.7693    1.7687 H         1 <1>         0.0265 
     49 H           3.4941    2.6932   -0.5054 H         1 <1>         0.0266 
     50 H           3.9240    0.9847   -0.2236 H         1 <1>         0.0266 
     51 H           4.8826    3.3772    1.4815 H         1 <1>         0.0284 
     52 H           5.3028    1.6744    1.7805 H         1 <1>         0.0284 
     53 H           7.1461    2.8744    0.5037 H         1 <1>         0.0518 
     54 H           5.9663    3.3402   -0.7101 H         1 <1>         0.0518 
     55 C           6.4220    1.1786   -2.1630 C.3       1 <1>         0.0472 
     56 C           5.4608    0.0871   -2.5575 C.2       1 <1>        -0.0597 
     57 C           5.2707   -0.9881   -1.7795 C.2       1 <1>         0.0200 
     58 N           4.3982   -1.9019   -2.1268 N.pl3     1 <1>        -0.3493 
     59 H           3.8569   -1.8147   -3.0008 H         1 <1>         0.1661 
     60 H           4.2111   -2.7122   -1.5241 H         1 <1>         0.1661 
     61 C           6.0969   -1.0759   -0.5087 C.ar      1 <1>         0.0103 
     62 C           6.6586    0.1067   -0.0082 C.ar      1 <1>         0.0511 
     63 C           7.3931    0.0752    1.1846 C.ar      1 <1>        -0.0451 
     64 C           7.5382   -1.1163    1.8987 C.ar      1 <1>        -0.0760 
     65 C           7.0050   -2.2995    1.3856 C.ar      1 <1>        -0.0772 
     66 C           6.3226   -2.2832    0.1668 C.ar      1 <1>        -0.0670 
     67 H           5.9870   -3.2288   -0.2405 H         1 <1>         0.0560 
     68 H           7.1254   -3.2305    1.9316 H         1 <1>         0.0502 
     69 H           8.0679   -1.1241    2.8466 H         1 <1>         0.0562 
     70 H           7.8676    0.9672    1.5735 H         1 <1>         0.0505 
     71 H           4.9244    0.2059   -3.5002 H         1 <1>         0.0334 
     72 C           7.8352    0.8789   -2.7186 C.3       1 <1>        -0.0376 
     73 H           8.5281    1.6792   -2.4166 H         1 <1>         0.0269 
     74 H           7.8125    0.8213   -3.8181 H         1 <1>         0.0269 
     75 H           8.2083   -0.0779   -2.3225 H         1 <1>         0.0269 
     76 H           6.0587    2.1158   -2.6167 H         1 <1>         0.0646 
@<TRIPOS>BOND
     1    1    2 1    
     2    2    3 1    
     3    3    4 1    
     4    4    5 1    
     5    5    6 1    
     6    6    7 1    
     7    7    8 1    
     8    8    9 1    
     9    9   10 1    
    10   10   11 1    
    11   11   12 1    
    12   12   13 1    
    13   13   14 1    
    14   14   15 2    
    15   15   16 1    
    16   16   17 1    
    17   16   18 1    
    18   15   19 1    
    19   19   20 ar   
    20   20   12 1    
    21   20   21 ar   
    22   21   22 ar   
    23   22   23 ar   
    24   23   24 ar   
    25   24   19 ar   
    26   24   25 1    
    27   23   26 1    
    28   22   27 1    
    29   21   28 1    
    30   14   29 1    
    31   13   30 1    
    32   30   31 1    
    33   30   32 1    
    34   30   33 1    
    35   13   34 1    
    36   11   35 1    
    37   11   36 1    
    38   10   37 1    
    39   10   38 1    
    40    9   39 1    
    41    9   40 1    
    42    8   41 1    
    43    8   42 1    
    44    7   43 1    
    45    7   44 1    
    46    6   45 1    
    47    6   46 1    
    48    5   47 1    
    49    5   48 1    
    50    4   49 1    
    51    4   50 1    
    52    3   51 1    
    53    3   52 1    
    54    2   53 1    
    55    2   54 1    
    56    1   55 1    
    57   55   56 1    
    58   56   57 2    
    59   57   58 1    
    60   58   59 1    
    61   58   60 1    
    62   57   61 1    
    63   61   62 ar   
    64   62    1 1    
    65   62   63 ar   
    66   63   64 ar   
    67   64   65 ar   
    68   65   66 ar   
    69   66   61 ar   
    70   66   67 1    
    71   65   68 1    
    72   64   69 1    
    73   63   70 1    
    74   56   71 1    
    75   55   72 1    
    76   72   73 1    
    77   72   74 1    
    78   72   75 1    
    79   55   76 1    
@<TRIPOS>SUBSTRUCTURE
     1 ****        1 TEMP              0 ****  ****    0 ROOT 
@<TRIPOS>SET
UNITY_3DHIT     STATIC     ATOMS    <user>   **** Atoms matching 3D or FLEX Search
0
@<TRIPOS>NORMAL
@<TRIPOS>FF_PBC
FORCE_FIELD_SETUP_FEATURE Force Field Setup information
v1.0  0 0.000000 0.000000 0.000000 0.000000 0.000000 0.000000 NONE 0 0 0 0 1 0 0 0 0 0 0 0 0
