#	Name:			PISM01000
#	Creating user name:	baoopengkun
#	Creation time:		Fri Jan 11 22:43:54 2019

#	Modifying user name:	baoopengkun
#	Modification time:	Fri Jan 11 22:45:27 2019

@<TRIPOS>MOLECULE
PISM01000
   41    44     1     1     0
SMALL
GAST_HUCK


@<TRIPOS>ATOM
      1 C1         10.9127    8.0016   -6.1856 C.ar      1 <1>        -0.0363 
      2 C2         10.4998    8.7655   -5.0861 C.ar      1 <1>        -0.0520 
      3 C3         11.0237    8.5328   -3.8031 C.ar      1 <1>        -0.0520 
      4 C4         11.9786    7.5317   -3.5848 C.ar      1 <1>        -0.0363 
      5 C5         12.3737    6.7756   -4.6869 C.ar      1 <1>         0.0786 
      6 C6         11.8522    6.9994   -5.9492 C.ar      1 <1>         0.0786 
      7 C7         12.5143    5.9800   -6.8418 C.2       1 <1>         0.2604 
      8 O8         12.3004    5.8721   -8.0377 O.2       1 <1>        -0.3534 
      9 N9         13.3292    5.2728   -6.1064 N.pl3     1 <1>        -0.1346 
     10 C10        13.3454    5.6345   -4.8509 C.2       1 <1>         0.2604 
     11 O11        14.0034    5.1576   -3.9423 O.2       1 <1>        -0.3534 
     12 C12        14.0823    4.2563   -6.5928 C.ar      1 <1>         0.0921 
     13 C13        13.5006    3.2635   -7.3897 C.ar      1 <1>        -0.0298 
     14 C14        14.2687    2.1952   -7.8623 C.ar      1 <1>        -0.0509 
     15 C15        15.6252    2.1086   -7.5401 C.ar      1 <1>         0.0384 
     16 C16        16.2100    3.1008   -6.7458 C.ar      1 <1>        -0.0509 
     17 C17        15.4471    4.1825   -6.2971 C.ar      1 <1>        -0.0298 
     18 C18        16.4336    0.9311   -8.0408 C.2       1 <1>         0.1992 
     19 O19        16.0650   -0.1750   -7.6829 O.2       1 <1>        -0.3898 
     20 N20        17.5097    1.0876   -8.8549 N.am      1 <1>        -0.2697 
     21 C21        17.8341    2.4088   -9.3872 C.3       1 <1>         0.0566 
     22 C22        18.7942    2.2893  -10.5929 C.3       1 <1>         0.0680 
     23 O23        19.9382    1.5500  -10.1432 O.3       1 <1>        -0.3758 
     24 C24        19.6353    0.1587   -9.9332 C.3       1 <1>         0.0680 
     25 C25        18.2871   -0.1067   -9.1916 C.3       1 <1>         0.0566 
     26 H1         10.5219    8.1771   -7.1832 H         1 <1>         0.0683 
     27 H2          9.7620    9.5494   -5.2278 H         1 <1>         0.0663 
     28 H3         10.6829    9.1369   -2.9673 H         1 <1>         0.0663 
     29 H4         12.3976    7.3442   -2.6016 H         1 <1>         0.0683 
     30 H5         12.4453    3.3137   -7.6381 H         1 <1>         0.0554 
     31 H6         13.8107    1.4282   -8.4788 H         1 <1>         0.0641 
     32 H7         17.2544    3.0268   -6.4645 H         1 <1>         0.0641 
     33 H8         15.9194    4.9689   -5.7168 H         1 <1>         0.0554 
     34 H9         18.3467    2.9997   -8.6128 H         1 <1>         0.0544 
     35 H10        16.9264    2.9460   -9.7095 H         1 <1>         0.0544 
     36 H11        19.1247    3.2947  -10.8996 H         1 <1>         0.0580 
     37 H12        18.3073    1.8052  -11.4566 H         1 <1>         0.0580 
     38 H13        20.4855   -0.2546   -9.3654 H         1 <1>         0.0580 
     39 H14        19.6294   -0.3376  -10.9184 H         1 <1>         0.0580 
     40 H15        18.5016   -0.6681   -8.2669 H         1 <1>         0.0544 
     41 H16        17.6451   -0.7473   -9.8183 H         1 <1>         0.0544 
@<TRIPOS>BOND
     1    2    1 ar   
     2    2    3 ar   
     3    3    4 ar   
     4    4    5 ar   
     5    5    6 ar   
     6    1    6 ar   
     7    6    7 1    
     8    7    8 2    
     9    7    9 1    
    10    9   10 1    
    11   10   11 2    
    12    5   10 1    
    13    9   12 1    
    14   12   13 ar   
    15   13   14 ar   
    16   14   15 ar   
    17   15   16 ar   
    18   16   17 ar   
    19   12   17 ar   
    20   15   18 1    
    21   18   19 2    
    22   18   20 am   
    23   20   21 1    
    24   21   22 1    
    25   22   23 1    
    26   23   24 1    
    27   24   25 1    
    28   20   25 1    
    29    1   26 1    
    30    2   27 1    
    31    3   28 1    
    32    4   29 1    
    33   13   30 1    
    34   14   31 1    
    35   16   32 1    
    36   17   33 1    
    37   21   34 1    
    38   21   35 1    
    39   22   36 1    
    40   22   37 1    
    41   24   38 1    
    42   24   39 1    
    43   25   40 1    
    44   25   41 1    
@<TRIPOS>SUBSTRUCTURE
     1 ****        2 TEMP              0 ****  ****    0 ROOT 
@<TRIPOS>NORMAL
@<TRIPOS>FF_PBC
FORCE_FIELD_SETUP_FEATURE Force Field Setup information
v1.0  0 0.000000 0.000000 0.000000 0.000000 0.000000 0.000000 NONE 0 0 0 0 1 0 0 0 0 0 0 0 0
