#	Name:			PISM01163
#	Creating user name:	14062
#	Creation time:		Sun Oct 20 20:40:37 2019

#	Modifying user name:	14062
#	Modification time:	Sun Oct 20 20:48:00 2019

@<TRIPOS>MOLECULE
PISM01163
  235   234     1     2     0
SMALL
GAST_HUCK


@<TRIPOS>ATOM
      1 O          19.1088  -11.8400   -2.7681 O.2       1 <1>        -0.3944 
      2 O          15.6426   -8.8967   -2.2044 O.2       1 <1>        -0.3944 
      3 O          13.7767   -9.4507    2.0498 O.2       1 <1>        -0.3944 
      4 O          22.2463  -11.8687    2.0436 O.2       1 <1>        -0.3947 
      5 O           8.8527    6.6845   -0.3016 O.2       1 <1>        -0.3944 
      6 O          11.8918   -6.3189   -1.1801 O.2       1 <1>        -0.3944 
      7 O           8.4057    4.3916   -2.3014 O.2       1 <1>        -0.3944 
      8 O           7.4462    3.0804    1.4898 O.2       1 <1>        -0.3942 
      9 O          10.6590   -2.6973   -2.4625 O.2       1 <1>        -0.3944 
     10 O           3.9245    5.1966    0.6647 O.2       1 <1>        -0.3952 
     11 O          10.5644    1.5460   -5.8640 O.2       1 <1>        -0.3944 
     12 O           9.3226    1.5888   -0.9161 O.2       1 <1>        -0.3944 
     13 O          10.6580   -2.4056    1.5703 O.2       1 <1>        -0.3944 
     14 O          11.9098    1.6334    0.9939 O.2       1 <1>        -0.3944 
     15 O           3.7027    1.0775   -0.8128 O.2       1 <1>        -0.3970 
     16 N          17.0032  -10.5931   -1.8036 N.am      1 <1>        -0.2635 
     17 N          20.2817  -11.7686   -0.9035 N.am      1 <1>        -0.2637 
     18 N          14.3641   -8.7250    0.0041 N.am      1 <1>        -0.2637 
     19 N          12.5573   -6.5945    0.9517 N.am      1 <1>        -0.2637 
     20 N           9.3019    4.5326    0.2399 N.am      1 <1>        -0.2637 
     21 N           6.4419    5.0248    1.0155 N.am      1 <1>        -0.2636 
     22 N          12.2883   -3.6581   -1.3105 N.am      1 <1>        -0.2640 
     23 N          10.2333    3.3855   -3.1209 N.am      1 <1>        -0.2640 
     24 N           4.1251    3.0464    1.2510 N.am      1 <1>        -0.2622 
     25 N           9.4325    0.6212   -4.1977 N.am      1 <1>        -0.2637 
     26 N           9.2052   -2.6203   -0.1266 N.am      1 <1>        -0.2637 
     27 N          21.8562  -13.5732    0.6659 N.am      1 <1>        -0.2990 
     28 N          19.1054   -4.1267    1.1128 N.3       1 <1>        -0.3300 
     29 N          10.4915   -0.2051   -1.5940 N.am      1 <1>        -0.2640 
     30 N           1.3016    3.3825    1.6319 N.3       1 <1>        -0.3105 
     31 N          10.1513    0.4257    1.5569 N.am      1 <1>        -0.2640 
     32 N           6.7443   -7.3167    4.1752 N.3       1 <1>        -0.3300 
     33 N          13.6534    9.3070   -0.1249 N.3       1 <1>        -0.3300 
     34 N           4.8036   -0.7970   -0.2957 N.am      1 <1>        -0.3007 
     35 C          17.0012  -12.9696   -1.0367 C.3       1 <1>        -0.0037 
     36 C          17.6969  -11.5698   -0.9547 C.3       1 <1>         0.1335 
     37 C          15.6611   -9.4046    0.0511 C.3       1 <1>         0.1310 
     38 C          15.4980  -12.9158   -0.6253 C.3       1 <1>        -0.0491 
     39 C          16.6220   -8.5120    0.8852 C.3       1 <1>        -0.0124 
     40 C          19.0908  -11.7287   -1.5531 C.2       1 <1>         0.2042 
     41 C          17.7762  -14.0192   -0.1873 C.3       1 <1>        -0.0582 
     42 C          16.1305   -9.6462   -1.3739 C.2       1 <1>         0.2039 
     43 C          20.4614  -11.5203    0.5279 C.3       1 <1>         0.1309 
     44 C          20.6304   -9.9847    0.7310 C.3       1 <1>        -0.0101 
     45 C          17.1025   -7.2669    0.0924 C.3       1 <1>        -0.0477 
     46 C          12.2218   -8.0208    0.9754 C.3       1 <1>         0.1310 
     47 C          21.6857   -9.2886   -0.1861 C.3       1 <1>        -0.0425 
     48 C          11.2841   -8.3146    2.1796 C.3       1 <1>        -0.0124 
     49 C          14.7074  -14.2177   -0.9319 C.3       1 <1>        -0.0648 
     50 C          13.5174   -8.7946    1.0545 C.2       1 <1>         0.2039 
     51 C           7.5961    5.7924    1.4829 C.3       1 <1>         0.1312 
     52 C          17.8935   -6.2879    1.0015 C.3       1 <1>        -0.0404 
     53 C           7.1848    7.2536    1.8280 C.3       1 <1>        -0.0101 
     54 C           9.9295   -7.5772    2.0074 C.3       1 <1>        -0.0477 
     55 C           8.3412    8.1701    2.3399 C.3       1 <1>        -0.0425 
     56 C          10.2764    4.3288   -0.8366 C.3       1 <1>         0.1310 
     57 C          11.3358    5.4560   -1.0055 C.3       1 <1>        -0.0124 
     58 C          21.5900  -12.3352    1.1281 C.2       1 <1>         0.1992 
     59 C          21.6521   -7.7514    0.0490 C.3       1 <1>        -0.0625 
     60 C          23.1304   -9.8144    0.0375 C.3       1 <1>        -0.0625 
     61 C           8.6453    5.7062    0.3957 C.2       1 <1>         0.2039 
     62 C           8.9857   -7.7975    3.2198 C.3       1 <1>        -0.0404 
     63 C          18.3812   -5.0464    0.2095 C.3       1 <1>        -0.0069 
     64 C           9.8386   -3.8454   -0.6113 C.3       1 <1>         0.1312 
     65 C          11.9870    5.8185    0.3592 C.3       1 <1>        -0.0477 
     66 C           8.8640   -4.7133   -1.4616 C.3       1 <1>        -0.0101 
     67 C          12.8016   -4.3971   -0.1519 C.3       1 <1>         0.1282 
     68 C          12.3798   -5.8522   -0.1652 C.2       1 <1>         0.2036 
     69 C           8.6268    0.6869   -2.9716 C.3       1 <1>         0.1312 
     70 C           5.3329    2.8862    0.4370 C.3       1 <1>         0.1476 
     71 C           7.6628   -0.5318   -2.9076 C.3       1 <1>        -0.0101 
     72 C           7.7521   -5.4356   -0.6411 C.3       1 <1>        -0.0425 
     73 C           9.5640    4.0404   -2.1452 C.2       1 <1>         0.2039 
     74 C           9.0486    7.6024    3.6026 C.3       1 <1>        -0.0625 
     75 C           7.7792    9.5875    2.6465 C.3       1 <1>        -0.0625 
     76 C           1.7148    5.8361    2.2316 C.3       1 <1>        -0.0116 
     77 C           6.6509   -0.6214   -4.0898 C.3       1 <1>        -0.0425 
     78 C           6.4840    3.6750    1.0268 C.2       1 <1>         0.2062 
     79 C           2.2657    4.3731    2.1658 C.3       1 <1>         0.0983 
     80 C          13.1105    6.8876    0.2441 C.3       1 <1>        -0.0404 
     81 C           9.6098    3.1343   -4.4199 C.3       1 <1>         0.1282 
     82 C          10.9758   -3.3868   -1.5044 C.2       1 <1>         0.2039 
     83 C           7.6352   -7.0583    3.0237 C.3       1 <1>        -0.0069 
     84 C           5.7485    1.3955    0.3165 C.3       1 <1>         0.0773 
     85 C           0.2897    5.8866    2.8654 C.3       1 <1>        -0.0498 
     86 C           3.5036    4.2438    1.3016 C.2       1 <1>         0.1957 
     87 C           9.8896    1.7106   -4.8610 C.2       1 <1>         0.2036 
     88 C          14.3528   -4.3243   -0.1254 C.3       1 <1>        -0.0244 
     89 C           9.5178    0.7183   -1.7452 C.2       1 <1>         0.2039 
     90 C           6.8960   -6.3260   -1.5852 C.3       1 <1>        -0.0625 
     91 C           6.8269   -4.4616    0.1394 C.3       1 <1>        -0.0625 
     92 C           2.7078    6.7423    3.0199 C.3       1 <1>        -0.0589 
     93 C          12.5881    8.2834   -0.1968 C.3       1 <1>        -0.0069 
     94 C           5.8287   -1.9362   -3.9653 C.3       1 <1>        -0.0625 
     95 C           5.6854    0.5965   -4.1435 C.3       1 <1>        -0.0625 
     96 C           9.1450   -0.6129    1.3198 C.3       1 <1>         0.1282 
     97 C          11.5145   -0.0944   -0.5451 C.3       1 <1>         0.1282 
     98 C           9.7250   -1.9548    0.9275 C.2       1 <1>         0.2036 
     99 C          10.1973    4.1812   -5.4025 C.3       1 <1>        -0.0244 
    100 C          -0.2801    7.3223    3.0260 C.3       1 <1>        -0.0648 
    101 C          11.1799    0.6946    0.7147 C.2       1 <1>         0.2036 
    102 C           4.6738    0.5438   -0.3068 C.2       1 <1>         0.1780 
    103 C           8.2750   -0.8436    2.5840 C.3       1 <1>        -0.0244 
    104 C          12.7635    0.5001   -1.2521 C.3       1 <1>        -0.0244 
    105 H          17.0347  -13.2899   -2.0927 H         1 <1>         0.0345 
    106 H          17.7275  -11.2289    0.0841 H         1 <1>         0.0803 
    107 H          15.5317  -10.3659    0.5643 H         1 <1>         0.0800 
    108 H          15.4118  -12.7086    0.4529 H         1 <1>         0.0267 
    109 H          14.9997  -12.1072   -1.1840 H         1 <1>         0.0267 
    110 H          17.1846  -10.6431   -2.7909 H         1 <1>         0.1883 
    111 H          16.0945   -8.1831    1.7949 H         1 <1>         0.0312 
    112 H          17.4930   -9.0926    1.2153 H         1 <1>         0.0312 
    113 H          17.3639  -15.0289   -0.3220 H         1 <1>         0.0235 
    114 H          18.8329  -14.0690   -0.4842 H         1 <1>         0.0235 
    115 H          17.7252  -13.7595    0.8809 H         1 <1>         0.0235 
    116 H          19.6132  -11.8820    1.1264 H         1 <1>         0.0800 
    117 H          20.8430   -9.7644    1.7894 H         1 <1>         0.0315 
    118 H          19.6638   -9.5266    0.4817 H         1 <1>         0.0315 
    119 H          17.7462   -7.5874   -0.7434 H         1 <1>         0.0268 
    120 H          16.2294   -6.7450   -0.3268 H         1 <1>         0.0268 
    121 H          21.1054  -11.8964   -1.4613 H         1 <1>         0.1883 
    122 H          11.7099   -8.3613    0.0599 H         1 <1>         0.0800 
    123 H          14.1450   -8.1841   -0.8142 H         1 <1>         0.1883 
    124 H          21.4185   -9.4553   -1.2444 H         1 <1>         0.0298 
    125 H          11.7719   -7.9898    3.1128 H         1 <1>         0.0312 
    126 H          11.1007   -9.3999    2.2481 H         1 <1>         0.0312 
    127 H          14.8315  -14.5068   -1.9871 H         1 <1>         0.0230 
    128 H          13.6341  -14.0535   -0.7435 H         1 <1>         0.0230 
    129 H          15.0301  -15.0529   -0.2935 H         1 <1>         0.0230 
    130 H           7.9875    5.3271    2.4005 H         1 <1>         0.0800 
    131 H          17.2504   -5.9420    1.8274 H         1 <1>         0.0277 
    132 H          18.7587   -6.8115    1.4389 H         1 <1>         0.0277 
    133 H           6.3970    7.2088    2.5971 H         1 <1>         0.0315 
    134 H           6.7475    7.7095    0.9247 H         1 <1>         0.0315 
    135 H           9.1037    8.2863    1.5510 H         1 <1>         0.0298 
    136 H          10.1133   -6.4972    1.8895 H         1 <1>         0.0268 
    137 H           9.4406   -7.9544    1.0946 H         1 <1>         0.0268 
    138 H          10.8633    3.4307   -0.5817 H         1 <1>         0.0800 
    139 H          12.9521   -6.2003    1.7834 H         1 <1>         0.1883 
    140 H          12.1246    5.1163   -1.6970 H         1 <1>         0.0312 
    141 H          10.8665    6.3344   -1.4677 H         1 <1>         0.0312 
    142 H          22.3780   -7.2394   -0.6020 H         1 <1>         0.0232 
    143 H          21.8953   -7.5150    1.0963 H         1 <1>         0.0232 
    144 H          20.6541   -7.3493   -0.1799 H         1 <1>         0.0232 
    145 H          23.2227  -10.8694   -0.2567 H         1 <1>         0.0232 
    146 H          23.4165   -9.7089    1.0951 H         1 <1>         0.0232 
    147 H          23.8456   -9.2414   -0.5727 H         1 <1>         0.0232 
    148 H           9.4739   -7.4256    4.1353 H         1 <1>         0.0277 
    149 H           8.7867   -8.8741    3.3476 H         1 <1>         0.0277 
    150 H           9.0605    3.7384    0.8094 H         1 <1>         0.1883 
    151 H          19.0301   -5.3569   -0.6272 H         1 <1>         0.0422 
    152 H          17.5070   -4.5201   -0.2092 H         1 <1>         0.0422 
    153 H           5.6516    5.5057    0.6224 H         1 <1>         0.1883 
    154 H          10.1779   -4.4648    0.2299 H         1 <1>         0.0800 
    155 H          11.2213    6.1847    1.0612 H         1 <1>         0.0268 
    156 H          12.4234    4.9007    0.7889 H         1 <1>         0.0268 
    157 H           9.4656   -5.4870   -1.9674 H         1 <1>         0.0315 
    158 H           8.3990   -4.0941   -2.2450 H         1 <1>         0.0315 
    159 H          12.4451   -3.9239    0.7764 H         1 <1>         0.0797 
    160 H           8.0082    1.5937   -2.9231 H         1 <1>         0.0800 
    161 H           5.1506    3.2680   -0.5822 H         1 <1>         0.0826 
    162 H           7.1021   -0.5031   -1.9615 H         1 <1>         0.0315 
    163 H           8.2693   -1.4495   -2.9164 H         1 <1>         0.0315 
    164 H           8.2380   -6.0974    0.0920 H         1 <1>         0.0298 
    165 H           9.7626    8.3379    4.0045 H         1 <1>         0.0232 
    166 H           8.3097    7.3711    4.3850 H         1 <1>         0.0232 
    167 H           9.6189    6.6915    3.3673 H         1 <1>         0.0232 
    168 H           7.0343    9.5391    3.4557 H         1 <1>         0.0232 
    169 H           7.2986   10.0150    1.7527 H         1 <1>         0.0232 
    170 H           8.5872   10.2686    2.9567 H         1 <1>         0.0232 
    171 H           1.6352    6.2175    1.1988 H         1 <1>         0.0338 
    172 H           7.2076   -0.6620   -5.0424 H         1 <1>         0.0298 
    173 H           2.5535    4.0648    3.1847 H         1 <1>         0.0703 
    174 H          13.5808    6.9958    1.2358 H         1 <1>         0.0277 
    175 H          13.8840    6.5421   -0.4608 H         1 <1>         0.0277 
    176 H           8.5171    3.2783   -4.4266 H         1 <1>         0.0797 
    177 H          12.9312   -3.3299   -2.0054 H         1 <1>         0.1883 
    178 H           7.1470   -7.4342    2.1087 H         1 <1>         0.0422 
    179 H           7.8092   -5.9746    2.9057 H         1 <1>         0.0422 
    180 H          11.1812    3.0913   -2.9991 H         1 <1>         0.1883 
    181 H           3.7551    2.2632    1.7528 H         1 <1>         0.1885 
    182 H           9.7003   -0.2761   -4.5561 H         1 <1>         0.1883 
    183 H           5.9706    0.9980    1.3178 H         1 <1>         0.0551 
    184 H           6.6526    1.3236   -0.3062 H         1 <1>         0.0551 
    185 H           8.4460   -2.2469   -0.6521 H         1 <1>         0.1883 
    186 H          -0.4150    5.3418    2.2162 H         1 <1>         0.0267 
    187 H           0.3025    5.3942    3.8516 H         1 <1>         0.0267 
    188 H          14.7663   -4.8350    0.7578 H         1 <1>         0.0277 
    189 H          14.7615   -4.7986   -1.0308 H         1 <1>         0.0277 
    190 H          14.6806   -3.2732   -0.1010 H         1 <1>         0.0277 
    191 H          22.6070  -14.0840    1.0854 H         1 <1>         0.1815 
    192 H          21.3291  -13.9943   -0.0699 H         1 <1>         0.1815 
    193 H           6.1434   -6.8894   -1.0117 H         1 <1>         0.0232 
    194 H           6.3750   -5.7041   -2.3295 H         1 <1>         0.0232 
    195 H           7.5309   -7.0517   -2.1172 H         1 <1>         0.0232 
    196 H           6.3770   -3.7288   -0.5475 H         1 <1>         0.0232 
    197 H           7.3815   -3.9319    0.9274 H         1 <1>         0.0232 
    198 H           6.0148   -5.0189    0.6317 H         1 <1>         0.0232 
    199 H           3.7425    6.6146    2.6713 H         1 <1>         0.0234 
    200 H           2.6786    6.4954    4.0922 H         1 <1>         0.0234 
    201 H           2.4568    7.8061    2.8952 H         1 <1>         0.0234 
    202 H          12.2213    8.2544   -1.2348 H         1 <1>         0.0422 
    203 H          11.7507    8.5948    0.4501 H         1 <1>         0.0422 
    204 H           5.1349   -2.0422   -4.8138 H         1 <1>         0.0232 
    205 H           6.4931   -2.8146   -3.9589 H         1 <1>         0.0232 
    206 H           5.2424   -1.9357   -3.0341 H         1 <1>         0.0232 
    207 H           5.1873    0.7364   -3.1723 H         1 <1>         0.0232 
    208 H           6.2164    1.5227   -4.4075 H         1 <1>         0.0232 
    209 H           4.9111    0.4362   -4.9096 H         1 <1>         0.0232 
    210 H           8.4688   -0.2447    0.5362 H         1 <1>         0.0797 
    211 H          19.3883   -3.2212    0.5913 H         1 <1>         0.1182 
    212 H          19.9924   -4.6005    1.5127 H         1 <1>         0.1182 
    213 H          11.8301   -1.0933   -0.2091 H         1 <1>         0.0797 
    214 H           9.7689    4.0528   -6.4090 H         1 <1>         0.0277 
    215 H           9.9656    5.1974   -5.0464 H         1 <1>         0.0277 
    216 H          11.2911    4.0738   -5.4667 H         1 <1>         0.0277 
    217 H          10.6004   -0.9424   -2.2677 H         1 <1>         0.1883 
    218 H           0.8792    3.7180    0.6940 H         1 <1>         0.1211 
    219 H           0.5159    3.1569    2.3400 H         1 <1>         0.1211 
    220 H          -0.2139    7.8705    2.0733 H         1 <1>         0.0230 
    221 H           0.2600    7.8846    3.8024 H         1 <1>         0.0230 
    222 H          -1.3389    7.2746    3.3272 H         1 <1>         0.0230 
    223 H          10.0457    1.0257    2.3522 H         1 <1>         0.1883 
    224 H           5.7746   -6.8614    4.0196 H         1 <1>         0.1182 
    225 H           7.1769   -6.9334    5.0900 H         1 <1>         0.1182 
    226 H           7.4910   -1.5913    2.3848 H         1 <1>         0.0277 
    227 H           7.7917    0.0943    2.8991 H         1 <1>         0.0277 
    228 H           8.9069   -1.2055    3.4098 H         1 <1>         0.0277 
    229 H          13.0360   -0.1063   -2.1304 H         1 <1>         0.0277 
    230 H          12.5483    1.5244   -1.5891 H         1 <1>         0.0277 
    231 H          13.6286    0.5278   -0.5704 H         1 <1>         0.0277 
    232 H          13.9925    9.4441    0.8934 H         1 <1>         0.1182 
    233 H          14.4917    9.0374   -0.7538 H         1 <1>         0.1182 
    234 H           4.0787   -1.3471   -0.7115 H         1 <1>         0.1814 
    235 H           5.5899   -1.2491    0.1223 H         1 <1>         0.1814 
@<TRIPOS>BOND
     1   40    1 2    
     2   42    2 2    
     3   50    3 2    
     4   58    4 2    
     5   61    5 2    
     6   68    6 2    
     7   73    7 2    
     8   78    8 2    
     9   82    9 2    
    10   86   10 2    
    11   87   11 2    
    12   89   12 2    
    13   98   13 2    
    14  101   14 2    
    15  102   15 2    
    16   16   36 1    
    17   42   16 am   
    18   16  110 1    
    19   40   17 am   
    20   17   43 1    
    21   17  121 1    
    22   18   37 1    
    23   50   18 am   
    24   18  123 1    
    25   19   46 1    
    26   68   19 am   
    27   19  139 1    
    28   56   20 1    
    29   20   61 am   
    30   20  150 1    
    31   51   21 1    
    32   21   78 am   
    33   21  153 1    
    34   22   67 1    
    35   82   22 am   
    36   22  177 1    
    37   23   73 am   
    38   81   23 1    
    39   23  180 1    
    40   70   24 1    
    41   24   86 am   
    42   24  181 1    
    43   69   25 1    
    44   25   87 am   
    45   25  182 1    
    46   26   64 1    
    47   98   26 am   
    48   26  185 1    
    49   58   27 am   
    50   27  191 1    
    51   27  192 1    
    52   63   28 1    
    53   28  211 1    
    54   28  212 1    
    55   29   89 am   
    56   97   29 1    
    57   29  217 1    
    58   79   30 1    
    59   30  218 1    
    60   30  219 1    
    61   31   96 1    
    62  101   31 am   
    63   31  223 1    
    64   83   32 1    
    65   32  224 1    
    66   32  225 1    
    67   93   33 1    
    68   33  232 1    
    69   33  233 1    
    70  102   34 am   
    71   34  234 1    
    72   34  235 1    
    73   36   35 1    
    74   35   38 1    
    75   35   41 1    
    76   35  105 1    
    77   36   40 1    
    78   36  106 1    
    79   37   39 1    
    80   37   42 1    
    81   37  107 1    
    82   38   49 1    
    83   38  108 1    
    84   38  109 1    
    85   39   45 1    
    86   39  111 1    
    87   39  112 1    
    88   41  113 1    
    89   41  114 1    
    90   41  115 1    
    91   43   44 1    
    92   43   58 1    
    93   43  116 1    
    94   44   47 1    
    95   44  117 1    
    96   44  118 1    
    97   45   52 1    
    98   45  119 1    
    99   45  120 1    
   100   46   48 1    
   101   46   50 1    
   102   46  122 1    
   103   47   59 1    
   104   47   60 1    
   105   47  124 1    
   106   48   54 1    
   107   48  125 1    
   108   48  126 1    
   109   49  127 1    
   110   49  128 1    
   111   49  129 1    
   112   51   53 1    
   113   61   51 1    
   114   51  130 1    
   115   52   63 1    
   116   52  131 1    
   117   52  132 1    
   118   53   55 1    
   119   53  133 1    
   120   53  134 1    
   121   54   62 1    
   122   54  136 1    
   123   54  137 1    
   124   55   74 1    
   125   55   75 1    
   126   55  135 1    
   127   56   57 1    
   128   73   56 1    
   129   56  138 1    
   130   57   65 1    
   131   57  140 1    
   132   57  141 1    
   133   59  142 1    
   134   59  143 1    
   135   59  144 1    
   136   60  145 1    
   137   60  146 1    
   138   60  147 1    
   139   62   83 1    
   140   62  148 1    
   141   62  149 1    
   142   63  151 1    
   143   63  152 1    
   144   64   66 1    
   145   64   82 1    
   146   64  154 1    
   147   65   80 1    
   148   65  155 1    
   149   65  156 1    
   150   66   72 1    
   151   66  157 1    
   152   66  158 1    
   153   67   68 1    
   154   67   88 1    
   155   67  159 1    
   156   69   71 1    
   157   89   69 1    
   158   69  160 1    
   159   78   70 1    
   160   70   84 1    
   161   70  161 1    
   162   71   77 1    
   163   71  162 1    
   164   71  163 1    
   165   72   90 1    
   166   72   91 1    
   167   72  164 1    
   168   74  165 1    
   169   74  166 1    
   170   74  167 1    
   171   75  168 1    
   172   75  169 1    
   173   75  170 1    
   174   79   76 1    
   175   76   85 1    
   176   76   92 1    
   177   76  171 1    
   178   77   94 1    
   179   77   95 1    
   180   77  172 1    
   181   86   79 1    
   182   79  173 1    
   183   80   93 1    
   184   80  174 1    
   185   80  175 1    
   186   87   81 1    
   187   81   99 1    
   188   81  176 1    
   189   83  178 1    
   190   83  179 1    
   191   84  102 1    
   192   84  183 1    
   193   84  184 1    
   194   85  100 1    
   195   85  186 1    
   196   85  187 1    
   197   88  188 1    
   198   88  189 1    
   199   88  190 1    
   200   90  193 1    
   201   90  194 1    
   202   90  195 1    
   203   91  196 1    
   204   91  197 1    
   205   91  198 1    
   206   92  199 1    
   207   92  200 1    
   208   92  201 1    
   209   93  202 1    
   210   93  203 1    
   211   94  204 1    
   212   94  205 1    
   213   94  206 1    
   214   95  207 1    
   215   95  208 1    
   216   95  209 1    
   217   96   98 1    
   218   96  103 1    
   219   96  210 1    
   220   97  101 1    
   221   97  104 1    
   222   97  213 1    
   223   99  214 1    
   224   99  215 1    
   225   99  216 1    
   226  100  220 1    
   227  100  221 1    
   228  100  222 1    
   229  103  226 1    
   230  103  227 1    
   231  103  228 1    
   232  104  229 1    
   233  104  230 1    
   234  104  231 1    
@<TRIPOS>SUBSTRUCTURE
     1 ****       79 TEMP              0 ****  ****    0 ROOT 
@<TRIPOS>NORMAL
@<TRIPOS>FF_PBC
FORCE_FIELD_SETUP_FEATURE Force Field Setup information
v1.0  0 0.000000 0.000000 0.000000 0.000000 0.000000 0.000000 NONE 0 0 0 0 1 0 0 0 0 0 0 0 0
@<TRIPOS>RENDERING_ATTRS
SMOOTH_STICKS   
*
