#	Name:			PISM00439
#	Creating user name:	baoopengkun
#	Creation time:		Sun Mar 31 18:30:50 2019

#	Modifying user name:	baoopengkun
#	Modification time:	Sun Mar 31 18:45:03 2019

@<TRIPOS>MOLECULE
PISM00439
   37    38     1     1     0
SMALL
GAST_HUCK


@<TRIPOS>ATOM
      1 C1         -2.5079   -2.1324  -15.4860 C.3       1 <1>        -0.0352 
      2 C2         -2.0296   -0.6920  -15.1978 C.3       1 <1>         0.0295 
      3 C3         -3.1040    0.3388  -15.0344 C.2       1 <1>         0.1496 
      4 C4         -4.4529    0.0995  -15.5539 C.2       1 <1>         0.0134 
      5 C5         -4.8960   -1.1298  -15.8446 C.2       1 <1>        -0.0667 
      6 C6         -4.0526   -2.3692  -15.6126 C.3       1 <1>         0.0374 
      7 C7         -1.9194   -1.7677  -14.0974 C.3       1 <1>        -0.0412 
      8 C8         -1.5516   -2.9415  -16.4038 C.3       1 <1>        -0.0705 
      9 C9         -4.6226   -2.9719  -14.3488 C.2       1 <1>        -0.0861 
     10 C10        -5.1606   -4.1929  -14.2580 C.2       1 <1>        -0.0144 
     11 C11        -5.6897   -4.6827  -12.9689 C.2       1 <1>         0.0276 
     12 C12        -6.9722   -5.0483  -12.8189 C.2       1 <1>         0.0681 
     13 C13        -8.0158   -5.0078  -13.8587 C.2       1 <1>         0.2775 
     14 O14        -7.7271   -4.7921  -15.0237 O.2       1 <1>        -0.3439 
     15 O15        -9.2901   -5.2032  -13.5131 O.3       1 <1>        -0.2912 
     16 O16        -4.2975   -3.2894  -16.6900 O.3       1 <1>        -0.4654 
     17 C17        -4.7465   -4.7571  -11.7931 C.3       1 <1>        -0.0121 
     18 H1         -1.0984   -0.3898  -15.6996 H         1 <1>         0.0511 
     19 C19        -6.2842   -1.3558  -16.4072 C.3       1 <1>        -0.0367 
     20 O20        -2.8448    1.3959  -14.4814 O.2       1 <1>        -0.3646 
     21 H2         -5.0837    0.9780  -15.6997 H         1 <1>         0.0970 
     22 H3         -0.8726   -2.0158  -13.8680 H         1 <1>         0.0283 
     23 H4         -2.5247   -1.4758  -13.2288 H         1 <1>         0.0283 
     24 H5         -1.8217   -4.0081  -16.3713 H         1 <1>         0.0222 
     25 H6         -0.4972   -2.8466  -16.1019 H         1 <1>         0.0222 
     26 H7         -1.6396   -2.5743  -17.4377 H         1 <1>         0.0222 
     27 H8         -4.6184   -2.3620  -13.4464 H         1 <1>         0.0537 
     28 H9         -5.2238   -4.8462  -15.1291 H         1 <1>         0.1123 
     29 H10        -7.3121   -5.3965  -11.8443 H         1 <1>         0.1013 
     30 H11        -9.8726   -5.1368  -14.2628 H         1 <1>         0.2519 
     31 H12        -4.0420   -2.9460  -17.5391 H         1 <1>         0.1803 
     32 H13        -4.8400   -5.7246  -11.2778 H         1 <1>         0.0431 
     33 H14        -4.9856   -3.9501  -11.0837 H         1 <1>         0.0431 
     34 H15        -3.7012   -4.6387  -12.1156 H         1 <1>         0.0431 
     35 H16        -6.2171   -1.7151  -17.4439 H         1 <1>         0.0416 
     36 H17        -6.8952   -0.4412  -16.4106 H         1 <1>         0.0416 
     37 H18        -6.8142   -2.1122  -15.8109 H         1 <1>         0.0416 
@<TRIPOS>BOND
     1    2    1 1    
     2    2    3 1    
     3    3    4 1    
     4    4    5 2    
     5    6    5 1    
     6    1    6 1    
     7    1    7 1    
     8    2    7 1    
     9    6    9 1    
    10    9   10 2    
    11   10   11 1    
    12   11   12 2    
    13   12   13 1    
    14   13   14 2    
    15   13   15 1    
    16    6   16 1    
    17   11   17 1    
    18    1    8 1    
    19    2   18 1    
    20    5   19 1    
    21    3   20 2    
    22    4   21 1    
    23    7   22 1    
    24    7   23 1    
    25    8   24 1    
    26    8   25 1    
    27    8   26 1    
    28    9   27 1    
    29   10   28 1    
    30   12   29 1    
    31   15   30 1    
    32   16   31 1    
    33   17   32 1    
    34   17   33 1    
    35   17   34 1    
    36   19   35 1    
    37   19   36 1    
    38   19   37 1    
@<TRIPOS>SUBSTRUCTURE
     1 ****        2 TEMP              0 ****  ****    0 ROOT 
@<TRIPOS>NORMAL
@<TRIPOS>FF_PBC
FORCE_FIELD_SETUP_FEATURE Force Field Setup information
v1.0  0 0.000000 0.000000 0.000000 0.000000 0.000000 0.000000 NONE 0 0 0 0 1 0 0 0 0 0 0 0 0
