#	Name:			PISM01036
#	Creating user name:	malab
#	Creation time:		Thu Jul 04 18:17:05 2019

#	Modifying user name:	malab
#	Modification time:	Thu Jul 04 18:20:14 2019

@<TRIPOS>MOLECULE
PISM01036
   38    39     1     1     0
SMALL
GAST_HUCK


@<TRIPOS>ATOM
      1 N1          3.9599    9.8026   30.2893 N.2       1 <1>        -0.1728 
      2 C2          5.0324   10.1271   30.9061 C.2       1 <1>         0.0654 
      3 N3          5.1912   11.4674   30.4267 N.2       1 <1>        -0.2825 
      4 C4          4.2637   11.7675   29.6372 C.2       1 <1>         0.1491 
      5 N5          3.4325   10.7719   29.4831 N.pl3     1 <1>        -0.1231 
      6 C6          2.3456   10.7131   28.7462 C.2       1 <1>         0.1353 
      7 C7          1.6060    9.3777   28.7788 C.3       1 <1>         0.1325 
      8 C8          2.1862    8.3204   27.7706 C.3       1 <1>         0.0044 
      9 C9          3.6464    7.9180   28.1274 C.3       1 <1>        -0.0552 
     10 C10         1.3128    7.0259   27.7596 C.3       1 <1>        -0.0552 
     11 C11         2.1771    8.9072   26.3266 C.3       1 <1>        -0.0552 
     12 O12         1.5636    8.9177   30.1466 O.3       1 <1>        -0.3715 
     13 C13         1.9093   11.7542   28.0112 C.2       1 <1>        -0.0361 
     14 C14         0.6387   11.7653   27.1894 C.ar      1 <1>        -0.0539 
     15 C15         0.7179   11.8898   25.7986 C.ar      1 <1>        -0.0688 
     16 C16        -0.4452   11.8567   25.0237 C.ar      1 <1>        -0.0364 
     17 C17        -1.6914   11.7179   25.6395 C.ar      1 <1>         0.1241 
     18 C18        -1.7763   11.6327   27.0313 C.ar      1 <1>        -0.0364 
     19 C19        -0.6137   11.6743   27.8064 C.ar      1 <1>        -0.0688 
     20 F20        -2.7972   11.6684   24.9011 F         1 <1>        -0.1896 
     21 H1          5.6443    9.5482   31.5963 H         1 <1>         0.0880 
     22 H2          4.2639   12.7638   29.2013 H         1 <1>         0.1388 
     23 H3          0.5593    9.5335   28.4837 H         1 <1>         0.0848 
     24 H4          3.6988    7.5312   29.1562 H         1 <1>         0.0238 
     25 H5          4.3299    8.7741   28.0297 H         1 <1>         0.0238 
     26 H6          4.0068    7.1289   27.4498 H         1 <1>         0.0238 
     27 H7          1.6450    6.3388   26.9660 H         1 <1>         0.0238 
     28 H8          0.2549    7.2673   27.5737 H         1 <1>         0.0238 
     29 H9          1.3847    6.4777   28.7099 H         1 <1>         0.0238 
     30 H10         2.5660    8.1749   25.6025 H         1 <1>         0.0238 
     31 H11         2.8086    9.8049   26.2584 H         1 <1>         0.0238 
     32 H12         1.1521    9.1696   26.0243 H         1 <1>         0.0238 
     33 H13         1.0358    8.1423   30.3002 H         1 <1>         0.2141 
     34 H14         2.4321   12.7026   27.9333 H         1 <1>         0.0306 
     35 H15         1.6835   12.0100   25.3175 H         1 <1>         0.0536 
     36 H16        -0.3865   11.9380   23.9434 H         1 <1>         0.0585 
     37 H17        -2.7475   11.5362   27.5050 H         1 <1>         0.0585 
     38 H18        -0.6858   11.6407   28.8893 H         1 <1>         0.0536 
@<TRIPOS>BOND
     1    2    1 2    
     2    2    3 1    
     3    3    4 2    
     4    4    5 1    
     5    1    5 1    
     6    5    6 1    
     7    6    7 1    
     8    7    8 1    
     9    8    9 1    
    10    8   10 1    
    11    8   11 1    
    12    7   12 1    
    13    6   13 2    
    14   13   14 1    
    15   14   15 ar   
    16   15   16 ar   
    17   16   17 ar   
    18   17   18 ar   
    19   18   19 ar   
    20   14   19 ar   
    21   17   20 1    
    22    2   21 1    
    23    4   22 1    
    24    7   23 1    
    25    9   24 1    
    26    9   25 1    
    27    9   26 1    
    28   10   27 1    
    29   10   28 1    
    30   10   29 1    
    31   11   30 1    
    32   11   31 1    
    33   11   32 1    
    34   12   33 1    
    35   13   34 1    
    36   15   35 1    
    37   16   36 1    
    38   18   37 1    
    39   19   38 1    
@<TRIPOS>SUBSTRUCTURE
     1 ****        2 TEMP              0 ****  ****    0 ROOT 
@<TRIPOS>NORMAL
@<TRIPOS>FF_PBC
FORCE_FIELD_SETUP_FEATURE Force Field Setup information
v1.0  0 0.000000 0.000000 0.000000 0.000000 0.000000 0.000000 NONE 0 0 0 0 1 0 0 0 0 0 0 0 0
