#	Name:			PISM01034
#	Creating user name:	malab
#	Creation time:		Tue Jul 02 17:12:55 2019

#	Modifying user name:	malab
#	Modification time:	Tue Jul 02 17:49:58 2019

@<TRIPOS>MOLECULE
PISM01034
   45    45     1     1     0
SMALL
GAST_HUCK


@<TRIPOS>ATOM
      1 N1         -7.6381    0.6228   -4.9230 N.pl3     1 <1>        -0.1726 
      2 C2         -7.9140   -0.6191   -5.1826 C.2       1 <1>         0.1282 
      3 N3         -6.8914   -1.3296   -5.0284 N.2       1 <1>        -0.2870 
      4 C4         -5.7750   -0.5228   -4.6196 C.2       1 <1>         0.0618 
      5 N5         -6.3181    0.6367   -4.5831 N.2       1 <1>        -0.1898 
      6 C6         -8.5243    1.7787   -4.9933 C.3       1 <1>         0.1128 
      7 C7         -8.8095    2.1776   -3.5088 C.3       1 <1>         0.0926 
      8 O8         -9.2955    0.9972   -2.8372 O.3       1 <1>        -0.3880 
      9 C9         -9.7396    3.4089   -3.1984 C.3       1 <1>        -0.0087 
     10 C10       -10.2262    3.3052   -1.7166 C.3       1 <1>        -0.0576 
     11 C11        -8.9742    4.7664   -3.3103 C.3       1 <1>        -0.0576 
     12 C12       -10.9966    3.4391   -4.1174 C.3       1 <1>        -0.0576 
     13 C13        -7.8215    2.8382   -5.8878 C.3       1 <1>        -0.0175 
     14 C14        -7.3376    2.2311   -7.2359 C.3       1 <1>        -0.0500 
     15 C15        -6.2190    2.7063   -9.4966 C.3       1 <1>        -0.0533 
     16 C16        -5.6253    3.7963  -10.4301 C.3       1 <1>        -0.0559 
     17 C17        -5.1152    3.1828  -11.7602 C.3       1 <1>        -0.0653 
     18 H1         -8.8814   -1.0127   -5.4913 H         1 <1>         0.1361 
     19 C19        -6.7243    3.3184   -8.1612 C.3       1 <1>        -0.0530 
     20 H2         -4.7490   -0.8148   -4.4008 H         1 <1>         0.0863 
     21 H3         -9.4667    1.4796   -5.4795 H         1 <1>         0.0705 
     22 H4         -7.8330    2.3666   -3.0344 H         1 <1>         0.0631 
     23 H5        -10.1271    0.6790   -3.1714 H         1 <1>         0.2099 
     24 H6        -10.8767    2.4318   -1.5609 H         1 <1>         0.0236 
     25 H7        -10.8047    4.1946   -1.4223 H         1 <1>         0.0236 
     26 H8         -9.3650    3.2178   -1.0360 H         1 <1>         0.0236 
     27 H9         -8.0996    4.7752   -2.6418 H         1 <1>         0.0236 
     28 H10        -9.6282    5.6025   -3.0180 H         1 <1>         0.0236 
     29 H11        -8.6238    4.9810   -4.3243 H         1 <1>         0.0236 
     30 H12       -10.7250    3.6127   -5.1673 H         1 <1>         0.0236 
     31 H13       -11.6733    4.2522   -3.8125 H         1 <1>         0.0236 
     32 H14       -11.5538    2.4929   -4.0546 H         1 <1>         0.0236 
     33 H15        -6.9604    3.2635   -5.3480 H         1 <1>         0.0297 
     34 H16        -8.5239    3.6432   -6.1433 H         1 <1>         0.0297 
     35 H17        -8.1899    1.7554   -7.7486 H         1 <1>         0.0266 
     36 H18        -6.5740    1.4584   -7.0520 H         1 <1>         0.0266 
     37 H19        -7.0571    2.2063  -10.0095 H         1 <1>         0.0265 
     38 H20        -5.4453    1.9506   -9.2823 H         1 <1>         0.0265 
     39 H21        -4.7872    4.3018   -9.9219 H         1 <1>         0.0263 
     40 H22        -6.3978    4.5506  -10.6549 H         1 <1>         0.0263 
     41 H23        -4.7024    3.9722  -12.4082 H         1 <1>         0.0230 
     42 H24        -5.9396    2.6861  -12.2954 H         1 <1>         0.0230 
     43 H25        -4.3243    2.4423  -11.5633 H         1 <1>         0.0230 
     44 H26        -5.8821    3.8054   -7.6423 H         1 <1>         0.0265 
     45 H27        -7.4850    4.0858   -8.3799 H         1 <1>         0.0265 
@<TRIPOS>BOND
     1    2    1 1    
     2    2    3 2    
     3    3    4 1    
     4    4    5 2    
     5    1    5 1    
     6    1    6 1    
     7    6    7 1    
     8    7    8 1    
     9    7    9 1    
    10    9   10 1    
    11    9   11 1    
    12    9   12 1    
    13    6   13 1    
    14   13   14 1    
    15   19   15 1    
    16   15   16 1    
    17   16   17 1    
    18    2   18 1    
    19    4   20 1    
    20   14   19 1    
    21    6   21 1    
    22    7   22 1    
    23    8   23 1    
    24   10   24 1    
    25   10   25 1    
    26   10   26 1    
    27   11   27 1    
    28   11   28 1    
    29   11   29 1    
    30   12   30 1    
    31   12   31 1    
    32   12   32 1    
    33   13   33 1    
    34   13   34 1    
    35   14   35 1    
    36   14   36 1    
    37   15   37 1    
    38   15   38 1    
    39   16   39 1    
    40   16   40 1    
    41   17   41 1    
    42   17   42 1    
    43   17   43 1    
    44   19   44 1    
    45   19   45 1    
@<TRIPOS>SUBSTRUCTURE
     1 ****        2 TEMP              0 ****  ****    0 ROOT 
@<TRIPOS>NORMAL
@<TRIPOS>FF_PBC
FORCE_FIELD_SETUP_FEATURE Force Field Setup information
v1.0  0 0.000000 0.000000 0.000000 0.000000 0.000000 0.000000 NONE 0 0 0 0 1 0 0 0 0 0 0 0 0
