#	Name:			PISM00755.1
#	Creating user name:	baoopengkun
#	Creation time:		Wed Jan 02 12:24:39 2019

#	Modifying user name:	baoopengkun
#	Modification time:	Wed Jan 02 12:26:54 2019

@<TRIPOS>MOLECULE
PISM00755.1
   44    46     1     1     0
SMALL
GAST_HUCK


@<TRIPOS>ATOM
      1 C1         -2.1771   -4.8822   12.4702 C.ar      1 <1>        -0.0312 
      2 C2         -1.2597   -5.8690   12.8545 C.ar      1 <1>        -0.0314 
      3 C3         -0.4734   -6.5455   11.9062 C.ar      1 <1>         0.0714 
      4 C4         -0.5915   -6.2440   10.5413 C.ar      1 <1>        -0.0156 
      5 C5         -1.5081   -5.2598   10.1734 C.ar      1 <1>         0.0824 
      6 C6         -2.2773   -4.6006   11.1088 C.ar      1 <1>         0.0810 
      7 C7         -3.1200   -3.6412   10.3114 C.2       1 <1>         0.2552 
      8 O8         -3.9345   -2.9219   10.8631 O.2       1 <1>        -0.3549 
      9 N9         -2.8294   -3.7547    9.0339 N.pl3     1 <1>        -0.1462 
     10 C10        -1.9055   -4.6734    8.8432 C.2       1 <1>         0.2534 
     11 O11        -1.3594   -5.0798    7.8343 O.2       1 <1>        -0.3566 
     12 C12        -3.4256   -3.0213    8.1079 C.2       1 <1>         0.1755 
     13 C13        -4.3700   -1.9529    8.5130 C.2       1 <1>         0.2659 
     14 O14        -5.5288   -2.0199    8.1306 O.2       1 <1>        -0.3725 
     15 O15        -3.9300   -0.9242    9.2544 O.3       1 <1>        -0.2845 
     16 C16        -4.9610    0.0106    9.6263 C.3       1 <1>         0.0638 
     17 C17        -3.3147   -3.0789    6.7660 C.2       1 <1>         0.0965 
     18 O18        -2.5401   -3.9794    6.1549 O.3       1 <1>        -0.2797 
     19 C19        -2.5501   -3.9044    4.7207 C.3       1 <1>         0.2354 
     20 C20        -1.5039   -4.8679    4.2187 C.2       1 <1>        -0.0015 
     21 C21        -0.5287   -4.2141    3.5908 C.2       1 <1>         0.0292 
     22 C22        -0.9490   -2.8194    3.6677 C.2       1 <1>         0.2495 
     23 O23        -2.1040   -2.6036    4.2849 O.3       1 <1>        -0.2310 
     24 O24        -0.2929   -1.9083    3.1930 O.2       1 <1>        -0.3691 
     25 C25         0.7058   -4.7803    2.9443 C.3       1 <1>        -0.0323 
     26 H1         -2.7884   -4.3541   13.1950 H         1 <1>         0.0692 
     27 H2         -1.1609   -6.1094   13.9086 H         1 <1>         0.0714 
     28 C28         0.5081   -7.6064   12.3572 C.2       1 <1>         0.2667 
     29 H4          0.0027   -6.7499    9.7875 H         1 <1>         0.0737 
     30 H5         -4.4966    0.8006   10.2343 H         1 <1>         0.0574 
     31 H6         -5.7400   -0.4809   10.2313 H         1 <1>         0.0574 
     32 H7         -5.4213    0.4775    8.7408 H         1 <1>         0.0574 
     33 H8         -3.8833   -2.3676    6.1572 H         1 <1>         0.0970 
     34 H9         -3.5392   -4.1455    4.2960 H         1 <1>         0.1204 
     35 H10        -1.5422   -5.9471    4.3620 H         1 <1>         0.0706 
     36 H11         0.4507   -5.6808    2.3658 H         1 <1>         0.0347 
     37 H12         1.4371   -5.0457    3.7220 H         1 <1>         0.0347 
     38 H13         1.1554   -4.0380    2.2679 H         1 <1>         0.0347 
     39 O39         1.1874   -8.1836   11.5223 O.2       1 <1>        -0.3551 
     40 O40         0.6135   -7.8929   13.6640 O.3       1 <1>        -0.2803 
     41 C41         1.5818   -8.9178   13.9646 C.3       1 <1>         0.0647 
     42 H3          1.5840   -9.0709   15.0539 H         1 <1>         0.0575 
     43 H14         2.5949   -8.6149   13.6544 H         1 <1>         0.0575 
     44 H15         1.3190   -9.8721   13.4802 H         1 <1>         0.0575 
@<TRIPOS>BOND
     1    2    1 ar   
     2    2    3 ar   
     3    3    4 ar   
     4    4    5 ar   
     5    5    6 ar   
     6    1    6 ar   
     7    6    7 1    
     8    7    8 2    
     9    7    9 1    
    10    9   10 1    
    11    5   10 1    
    12   10   11 2    
    13    9   12 1    
    14   12   13 1    
    15   13   14 2    
    16   13   15 1    
    17   15   16 1    
    18   12   17 2    
    19   17   18 1    
    20   18   19 1    
    21   19   20 1    
    22   20   21 2    
    23   21   22 1    
    24   22   23 1    
    25   19   23 1    
    26   22   24 2    
    27   21   25 1    
    28    1   26 1    
    29    2   27 1    
    30    3   28 1    
    31    4   29 1    
    32   16   30 1    
    33   16   31 1    
    34   16   32 1    
    35   17   33 1    
    36   19   34 1    
    37   20   35 1    
    38   25   36 1    
    39   25   37 1    
    40   25   38 1    
    41   28   39 2    
    42   28   40 1    
    43   40   41 1    
    44   41   42 1    
    45   41   43 1    
    46   41   44 1    
@<TRIPOS>SUBSTRUCTURE
     1 ****        2 TEMP              0 ****  ****    0 ROOT 
@<TRIPOS>NORMAL
@<TRIPOS>FF_PBC
FORCE_FIELD_SETUP_FEATURE Force Field Setup information
v1.0  0 0.000000 0.000000 0.000000 0.000000 0.000000 0.000000 NONE 0 0 0 0 1 0 0 0 0 0 0 0 0
