#	Name:			PISM00293
#	Creating user name:	malab
#	Creation time:		Sat Apr 06 18:22:00 2019

#	Modifying user name:	malab
#	Modification time:	Sat Apr 06 18:22:28 2019

@<TRIPOS>MOLECULE
PISM00293
   59    60     1     1     0
SMALL
GAST_HUCK


@<TRIPOS>ATOM
      1 C1        -15.1914   20.5065   53.2563 C.3       1 <1>        -0.0681 
      2 Si2       -15.4517   18.7329   53.7028 Si        1 <1>         0.0000 
      3 C3        -14.1966   18.2241   54.9578 C.3       1 <1>        -0.0681 
      4 C4        -17.1356   18.5406   54.4283 C.3       1 <1>        -0.0681 
      5 C5        -15.3332   17.6551   52.1844 C.3       1 <1>        -0.0273 
      6 C6        -13.9347   17.7134   51.5268 C.3       1 <1>         0.0504 
      7 O7        -13.9696   16.8706   50.3593 O.3       1 <1>        -0.3540 
      8 C8        -12.7315   16.8458   49.6259 C.3       1 <1>         0.1485 
      9 O9        -12.8917   15.9785   48.4892 O.3       1 <1>        -0.3498 
     10 C10       -13.6606   16.5187   47.3902 C.3       1 <1>         0.0787 
     11 C11       -15.0806   17.0412   47.7430 C.3       1 <1>         0.0014 
     12 C12       -15.8184   17.5619   46.4649 C.3       1 <1>         0.0693 
     13 O13       -15.2345   16.9815   45.2772 O.3       1 <1>        -0.3426 
     14 C14       -15.0141   15.5720   45.4137 C.3       1 <1>         0.1990 
     15 C15       -13.7655   15.3936   46.3085 C.3       1 <1>         0.0937 
     16 C16       -15.8867   19.1176   46.2683 C.3       1 <1>        -0.0113 
     17 C17       -14.4674   19.7564   46.2648 C.3       1 <1>        -0.0577 
     18 C18       -16.7598   19.8026   47.3668 C.3       1 <1>        -0.0577 
     19 C19       -16.5548   19.4108   44.8876 C.3       1 <1>        -0.0577 
     20 O20       -14.6698   14.9935   44.1501 O.3       1 <1>        -0.2419 
     21 C21       -12.6354   15.5154   45.2514 C.3       1 <1>         0.1676 
     22 O22       -11.4476   14.7805   45.6078 O.3       1 <1>        -0.3691 
     23 C23       -13.3437   14.9953   44.0324 C.2       1 <1>         0.2662 
     24 O24       -12.7789   14.6013   43.0257 O.2       1 <1>        -0.3674 
     25 C25       -13.8092   13.9649   46.9310 C.3       1 <1>        -0.0475 
     26 H26       -15.9245   15.0652   45.7769 H         1 <1>         0.0972 
     27 H1        -14.1643   20.6545   52.8931 H         1 <1>         0.0227 
     28 H2        -15.3554   21.1312   54.1465 H         1 <1>         0.0227 
     29 H3        -15.9055   20.7934   52.4705 H         1 <1>         0.0227 
     30 H4        -14.3141   17.1530   55.1782 H         1 <1>         0.0227 
     31 H5        -14.3487   18.8067   55.8782 H         1 <1>         0.0227 
     32 H6        -13.1845   18.4128   54.5720 H         1 <1>         0.0227 
     33 H7        -17.8895   18.8471   53.6886 H         1 <1>         0.0227 
     34 H8        -17.2224   19.1719   55.3247 H         1 <1>         0.0227 
     35 H9        -17.2969   17.4880   54.7034 H         1 <1>         0.0227 
     36 H10       -16.0949   17.9916   51.4638 H         1 <1>         0.0288 
     37 H11       -15.5604   16.6183   52.4772 H         1 <1>         0.0288 
     38 H12       -13.1740   17.3564   52.2397 H         1 <1>         0.0561 
     39 H13       -13.7085   18.7542   51.2441 H         1 <1>         0.0561 
     40 H14       -11.9538   16.3879   50.2572 H         1 <1>         0.0871 
     41 H15       -12.3899   17.8490   49.3213 H         1 <1>         0.0871 
     42 H16       -13.1027   17.3814   46.9983 H         1 <1>         0.0607 
     43 H17       -15.0334   17.8381   48.4921 H         1 <1>         0.0316 
     44 H18       -15.6283   16.1981   48.1943 H         1 <1>         0.0316 
     45 H19       -16.8667   17.2191   46.5179 H         1 <1>         0.0603 
     46 H20       -13.8322   19.2766   45.5047 H         1 <1>         0.0236 
     47 H21       -13.9805   19.6619   47.2460 H         1 <1>         0.0236 
     48 H22       -14.5303   20.8299   46.0290 H         1 <1>         0.0236 
     49 H23       -16.8726   20.8762   47.1506 H         1 <1>         0.0236 
     50 H24       -16.3201   19.7221   48.3701 H         1 <1>         0.0236 
     51 H25       -17.7655   19.3565   47.3965 H         1 <1>         0.0236 
     52 H27       -16.6620   20.4938   44.7211 H         1 <1>         0.0236 
     53 H28       -17.5571   18.9585   44.8370 H         1 <1>         0.0236 
     54 H29       -15.9536   19.0066   44.0590 H         1 <1>         0.0236 
     55 H30       -12.3872   16.5547   44.9805 H         1 <1>         0.0862 
     56 H31       -11.0329   15.1279   46.3916 H         1 <1>         0.2135 
     57 H32       -14.6497   13.8832   47.6367 H         1 <1>         0.0240 
     58 H33       -12.8835   13.7303   47.4769 H         1 <1>         0.0240 
     59 H34       -13.9383   13.2035   46.1463 H         1 <1>         0.0240 
@<TRIPOS>BOND
     1    2    1 1    
     2    2    3 1    
     3    2    4 1    
     4    2    5 1    
     5    5    6 1    
     6    6    7 1    
     7    7    8 1    
     8    8    9 1    
     9    9   10 1    
    10   10   11 1    
    11   11   12 1    
    12   12   13 1    
    13   13   14 1    
    14   14   20 1    
    15   10   15 1    
    16   12   16 1    
    17   16   17 1    
    18   16   18 1    
    19   16   19 1    
    20   15   14 1    
    21   15   21 1    
    22   21   22 1    
    23   21   23 1    
    24   23   24 2    
    25   15   25 1    
    26   23   20 1    
    27   14   26 1    
    28    1   27 1    
    29    1   28 1    
    30    1   29 1    
    31    3   30 1    
    32    3   31 1    
    33    3   32 1    
    34    4   33 1    
    35    4   34 1    
    36    4   35 1    
    37    5   36 1    
    38    5   37 1    
    39    6   38 1    
    40    6   39 1    
    41    8   40 1    
    42    8   41 1    
    43   10   42 1    
    44   11   43 1    
    45   11   44 1    
    46   12   45 1    
    47   17   46 1    
    48   17   47 1    
    49   17   48 1    
    50   18   49 1    
    51   18   50 1    
    52   18   51 1    
    53   19   52 1    
    54   19   53 1    
    55   19   54 1    
    56   21   55 1    
    57   22   56 1    
    58   25   57 1    
    59   25   58 1    
    60   25   59 1    
@<TRIPOS>SUBSTRUCTURE
     1 ****        2 TEMP              0 ****  ****    0 ROOT 
@<TRIPOS>NORMAL
@<TRIPOS>FF_PBC
FORCE_FIELD_SETUP_FEATURE Force Field Setup information
v1.0  0 0.000000 0.000000 0.000000 0.000000 0.000000 0.000000 NONE 0 0 0 0 1 0 0 0 0 0 0 0 0
