#	Name:			PISM00903
#	Creating user name:	baoopengkun
#	Creation time:		Fri Dec 14 10:23:48 2018

#	Modifying user name:	baoopengkun
#	Modification time:	Fri Dec 14 10:27:49 2018

@<TRIPOS>MOLECULE
PISM00903
   40    41     1     1     0
SMALL
GAST_HUCK


@<TRIPOS>ATOM
      1 C1         20.2715    3.6688   -8.7897 C.ar      1 <1>        -0.0508 
      2 C2         20.2886    2.5696   -7.9184 C.ar      1 <1>        -0.0510 
      3 C3         20.7301    2.7437   -6.6010 C.ar      1 <1>        -0.0736 
      4 C4         21.1772    3.9907   -6.1573 C.ar      1 <1>        -0.0737 
      5 C5         21.1865    5.0829   -7.0292 C.ar      1 <1>        -0.0545 
      6 C6         20.7274    4.9141   -8.3395 C.ar      1 <1>        -0.0655 
      7 C7         19.8319    1.1796   -8.3871 C.3       1 <1>        -0.0368 
      8 C8         19.7587    3.5274  -10.2313 C.3       1 <1>        -0.0351 
      9 C9         21.6907    6.4524   -6.5538 C.3       1 <1>        -0.0036 
     10 C10        20.5136    7.2520   -5.9443 C.3       1 <1>         0.0414 
     11 N11        20.9824    8.5740   -5.5339 N.am      1 <1>        -0.2605 
     12 C12        21.1585    9.5409   -6.4580 C.2       1 <1>         0.3248 
     13 O13        20.9203    9.3871   -7.6444 O.2       1 <1>        -0.3773 
     14 O14        21.6153   10.6867   -5.9379 O.3       1 <1>        -0.2139 
     15 C15        21.8841   11.7034   -6.9184 C.3       1 <1>         0.2419 
     16 C16        20.6823   12.0681   -7.7586 C.2       1 <1>        -0.0022 
     17 C17        20.9657   11.9165   -9.0513 C.2       1 <1>         0.0291 
     18 C18        22.3512   11.4551   -9.0525 C.2       1 <1>         0.2494 
     19 O19        22.9028   11.2963   -7.8546 O.3       1 <1>        -0.2315 
     20 C20        20.0697   12.1679  -10.2327 C.3       1 <1>        -0.0323 
     21 O21        22.9687   11.2329  -10.0802 O.2       1 <1>        -0.3691 
     22 H1         20.7292    1.9091   -5.9074 H         1 <1>         0.0521 
     23 H2         21.5159    4.1065   -5.1326 H         1 <1>         0.0482 
     24 H3         20.7263    5.7656   -9.0118 H         1 <1>         0.0477 
     25 H4         18.7367    1.1742   -8.4903 H         1 <1>         0.0363 
     26 H5         20.1161    0.3936   -7.6717 H         1 <1>         0.0363 
     27 H6         20.2902    0.9320   -9.3556 H         1 <1>         0.0363 
     28 H7         18.8031    2.9834  -10.2472 H         1 <1>         0.0375 
     29 H8         20.5016    2.9761  -10.8263 H         1 <1>         0.0375 
     30 H9         19.5935    4.5064  -10.7053 H         1 <1>         0.0375 
     31 H10        22.1242    7.0079   -7.4004 H         1 <1>         0.0432 
     32 H11        22.4832    6.3271   -5.7991 H         1 <1>         0.0432 
     33 H12        20.1091    6.6982   -5.0800 H         1 <1>         0.0540 
     34 H13        19.7033    7.3423   -6.6875 H         1 <1>         0.0540 
     35 H14        21.2072    8.7408   -4.5721 H         1 <1>         0.1869 
     36 H15        22.2385   12.6025   -6.3897 H         1 <1>         0.1194 
     37 H16        19.7256   12.4032   -7.3607 H         1 <1>         0.0704 
     38 H17        20.6572   12.1727  -11.1629 H         1 <1>         0.0347 
     39 H18        19.5653   13.1396  -10.1244 H         1 <1>         0.0347 
     40 H19        19.3127   11.3719  -10.2920 H         1 <1>         0.0347 
@<TRIPOS>BOND
     1    2    1 ar   
     2    2    3 ar   
     3    3    4 ar   
     4    4    5 ar   
     5    5    6 ar   
     6    1    6 ar   
     7    2    7 1    
     8    1    8 1    
     9    5    9 1    
    10    9   10 1    
    11   10   11 1    
    12   11   12 am   
    13   12   13 2    
    14   12   14 1    
    15   14   15 1    
    16   15   16 1    
    17   16   17 2    
    18   17   18 1    
    19   18   19 1    
    20   15   19 1    
    21   17   20 1    
    22   18   21 2    
    23    3   22 1    
    24    4   23 1    
    25    6   24 1    
    26    7   25 1    
    27    7   26 1    
    28    7   27 1    
    29    8   28 1    
    30    8   29 1    
    31    8   30 1    
    32    9   31 1    
    33    9   32 1    
    34   10   33 1    
    35   10   34 1    
    36   11   35 1    
    37   15   36 1    
    38   16   37 1    
    39   20   38 1    
    40   20   39 1    
    41   20   40 1    
@<TRIPOS>SUBSTRUCTURE
     1 ****        2 TEMP              0 ****  ****    0 ROOT 
@<TRIPOS>NORMAL
@<TRIPOS>FF_PBC
FORCE_FIELD_SETUP_FEATURE Force Field Setup information
v1.0  0 0.000000 0.000000 0.000000 0.000000 0.000000 0.000000 NONE 0 0 0 0 1 0 0 0 0 0 0 0 0
