#	Name:			PISM00785
#	Creating user name:	baoopengkun
#	Creation time:		Sat Dec 15 01:09:24 2018

#	Modifying user name:	baoopengkun
#	Modification time:	Sat Dec 15 01:11:27 2018

@<TRIPOS>MOLECULE
PISM00785
   38    41     1     1     0
SMALL
GAST_HUCK


@<TRIPOS>ATOM
      1 C1         12.0454   11.0025  -27.8931 C.ar      1 <1>        -0.0763 
      2 C2         11.0795   10.1323  -27.3623 C.ar      1 <1>        -0.0742 
      3 C3         11.4447    9.0016  -26.6186 C.ar      1 <1>        -0.0412 
      4 C4         12.8079    8.7739  -26.4263 C.ar      1 <1>         0.0663 
      5 C5         13.7537    9.6424  -26.9550 C.ar      1 <1>        -0.0098 
      6 C6         13.4130   10.7716  -27.6967 C.ar      1 <1>        -0.0703 
      7 C7         15.0426    9.0108  -26.5026 C.2       1 <1>        -0.0183 
      8 C8         14.7096    7.9245  -25.8143 C.2       1 <1>         0.1037 
      9 N9         13.4140    7.7649  -25.7554 N.pl3     1 <1>        -0.2675 
     10 C10        12.7317    6.6718  -25.0739 C.3       1 <1>         0.0368 
     11 C11        15.9256    7.2652  -25.3480 C.2       1 <1>         0.1397 
     12 O12        16.0301    6.2464  -24.6844 O.2       1 <1>        -0.4040 
     13 C13        17.0239    8.1084  -25.8557 C.2       1 <1>         0.0278 
     14 C14        16.5099    9.3035  -26.6392 C.3       1 <1>        -0.0037 
     15 C15        18.3213    7.8583  -25.6546 C.2       1 <1>         0.0829 
     16 O16        19.2373    8.6985  -26.1580 O.3       1 <1>        -0.2667 
     17 C17        20.5954    8.3322  -25.8561 C.3       1 <1>         0.2400 
     18 C18        20.8739    8.3430  -24.3714 C.2       1 <1>        -0.0007 
     19 C19        21.3230    7.1524  -23.9779 C.2       1 <1>         0.0293 
     20 C20        21.3239    6.3612  -25.2044 C.2       1 <1>         0.2496 
     21 O21        20.8962    6.9911  -26.2925 O.3       1 <1>        -0.2302 
     22 C22        21.7192    6.7129  -22.5949 C.3       1 <1>        -0.0323 
     23 O23        21.6870    5.1983  -25.2331 O.2       1 <1>        -0.3691 
     24 H1         11.7289   11.8691  -28.4656 H         1 <1>         0.0517 
     25 H2         10.0269   10.3388  -27.5311 H         1 <1>         0.0552 
     26 H3         10.6970    8.3313  -26.2095 H         1 <1>         0.0546 
     27 H4         14.1732   11.4329  -28.0983 H         1 <1>         0.0563 
     28 H5         12.1260    6.1084  -25.7996 H         1 <1>         0.0554 
     29 H6         12.0733    7.0808  -24.2927 H         1 <1>         0.0554 
     30 H7         13.4441    5.9783  -24.6014 H         1 <1>         0.0554 
     31 H8         16.8316    9.2825  -27.6912 H         1 <1>         0.0475 
     32 H9         16.7784   10.2598  -26.1659 H         1 <1>         0.0475 
     33 H10        18.5639    6.9620  -25.0784 H         1 <1>         0.1132 
     34 H11        21.2724    9.0389  -26.3625 H         1 <1>         0.1214 
     35 H12        20.7269    9.2054  -23.7224 H         1 <1>         0.0706 
     36 H13        21.5838    5.6255  -22.4937 H         1 <1>         0.0347 
     37 H14        21.1013    7.2197  -21.8386 H         1 <1>         0.0347 
     38 H15        22.7771    6.9595  -22.4216 H         1 <1>         0.0347 
@<TRIPOS>BOND
     1    2    1 ar   
     2    2    3 ar   
     3    3    4 ar   
     4    4    5 ar   
     5    5    6 ar   
     6    1    6 ar   
     7    5    7 1    
     8    7    8 2    
     9    8    9 1    
    10    4    9 1    
    11    9   10 1    
    12    8   11 1    
    13   11   12 2    
    14   11   13 1    
    15   13   14 1    
    16    7   14 1    
    17   13   15 2    
    18   15   16 1    
    19   16   17 1    
    20   17   18 1    
    21   18   19 2    
    22   19   20 1    
    23   20   21 1    
    24   17   21 1    
    25   19   22 1    
    26   20   23 2    
    27    1   24 1    
    28    2   25 1    
    29    3   26 1    
    30    6   27 1    
    31   10   28 1    
    32   10   29 1    
    33   10   30 1    
    34   14   31 1    
    35   14   32 1    
    36   15   33 1    
    37   17   34 1    
    38   18   35 1    
    39   22   36 1    
    40   22   37 1    
    41   22   38 1    
@<TRIPOS>SUBSTRUCTURE
     1 ****        2 TEMP              0 ****  ****    0 ROOT 
@<TRIPOS>NORMAL
@<TRIPOS>FF_PBC
FORCE_FIELD_SETUP_FEATURE Force Field Setup information
v1.0  0 0.000000 0.000000 0.000000 0.000000 0.000000 0.000000 NONE 0 0 0 0 1 0 0 0 0 0 0 0 0
