#	Name:			PISM00633
#	Creating user name:	baoopengkun
#	Creation time:		Sat Dec 08 17:31:57 2018

#	Modifying user name:	baoopengkun
#	Modification time:	Sat Dec 08 17:32:31 2018

@<TRIPOS>MOLECULE
PISM00633
   52    55     1     2     0
SMALL
GAST_HUCK


@<TRIPOS>ATOM
      1 C1         -1.5311   15.5078    0.5481 C.ar      1 PHENYL     -0.0348 
      2 C2         -1.1132   15.6740    1.8710 C.ar      1 PHENYL     -0.0183 
      3 C3         -1.2377   16.9207    2.4881 C.ar      1 PHENYL      0.0716 
      4 C4         -1.8005   17.9894    1.7861 C.ar      1 PHENYL     -0.0038 
      5 C5         -2.2329   17.8194    0.4679 C.ar      1 PHENYL      0.0705 
      6 C6         -2.0620   16.5851   -0.1710 C.ar      1 PHENYL      0.0199 
      7 C7         -2.4536   16.3733   -1.6413 C.3       1 PHENYL      0.1912 
      8 C8         -3.9279   15.9183   -1.7100 C.3       1 PHENYL      0.1066 
      9 N9         -4.1776   14.8759   -0.7239 N.pl3     1 PHENYL     -0.1816 
     10 N10        -3.9835   13.5375   -0.8886 N.2       1 PHENYL     -0.1908 
     11 C11        -4.3008   12.8515    0.1457 C.2       1 PHENYL      0.0618 
     12 N12        -4.7453   13.8910    1.0327 N.2       1 PHENYL     -0.2870 
     13 C13        -4.6546   15.0117    0.4759 C.2       1 PHENYL      0.1270 
     14 O14        -2.2277   17.5167   -2.4748 O.3       1 PHENYL     -0.3824 
     15 C15        -0.8123   17.6218   -2.6409 C.3       1 PHENYL      0.0669 
     16 C16        -0.4329   16.1286   -2.7743 C.3       1 PHENYL      0.0997 
     17 O17        -1.5762   15.4220   -2.2648 O.3       1 PHENYL     -0.3768 
     18 Cl18       -0.6925   17.1427    4.1379 Cl        1 PHENYL     -0.0423 
     19 H1         -1.4450   14.5316    0.0797 H         1 PHENYL      0.0847 
     20 H2         -0.6932   14.8369    2.4196 H         1 PHENYL      0.0703 
     21 H3         -1.9042   18.9553    2.2685 H         1 PHENYL      0.0708 
     22 Cl22       -2.9947   19.1689   -0.3511 Cl        1 PHENYL     -0.0423 
     23 H5         -4.1362   15.5339   -2.7194 H         1 PHENYL      0.0592 
     24 H6         -4.5802   16.7849   -1.5238 H         1 PHENYL      0.0592 
     25 H7         -4.2486   11.7756    0.3055 H         1 PHENYL      0.0863 
     26 H8         -4.9386   15.9506    0.9498 H         1 PHENYL      0.1361 
     27 H11        -0.3675   18.0804   -1.7435 H         1 PHENYL      0.0575 
     28 C28         0.8661   15.7683   -2.0166 C.3       1 PHENYL      0.0952 
     29 H9         -0.5457   18.2277   -3.5207 H         1 PHENYL      0.0575 
     30 H10        -0.3311   15.8570   -3.8380 H         1 PHENYL      0.0635 
     31 C           3.2695   16.3318   -2.2360 C.ar      1 PHENYL      0.1201 
     32 C           4.2594   16.6612   -3.1709 C.ar      1 PHENYL      0.1229 
     33 C           5.6080   16.4353   -2.8618 C.ar      1 PHENYL     -0.0412 
     34 O34         1.9270   16.5665   -2.5688 O.3       1 PHENYL     -0.3192 
     35 H15         1.0707   14.6945   -2.1535 H         1 PHENYL      0.0635 
     36 H16         0.7210   15.9785   -0.9476 H         1 PHENYL      0.0635 
     37 C           5.9649   15.8775   -1.6312 C.ar      1 PHENYL     -0.0819 
     38 C           4.9775   15.5502   -0.6998 C.ar      1 PHENYL     -0.0819 
     39 C           3.6328   15.7838   -0.9987 C.ar      1 PHENYL     -0.0414 
     40 O40         3.8623   17.2100   -4.4015 O.3       1 PHENYL     -0.3083 
     41 C41         4.7963   17.5703   -5.4322 C.3       1 PHENYL      0.0963 
     42 C42         3.9946   18.0684   -6.6081 C.2       1 PHENYL     -0.0596 
     43 C43         4.1956   19.2569   -7.1914 C.2       1 PHENYL     -0.1150 
     44 H4          6.3999   16.6825   -3.5580 H         1 PHENYL      0.0509 
     45 H12         7.0102   15.6981   -1.3972 H         1 PHENYL      0.0495 
     46 H13         5.2559   15.1156    0.2557 H         1 PHENYL      0.0495 
     47 H14         2.8895   15.5345   -0.2521 H         1 PHENYL      0.0509 
     48 H17         5.3681   16.6880   -5.7604 H         1 PHENYL      0.0791 
     49 H18         5.4875   18.3460   -5.0663 H         1 PHENYL      0.0791 
     50 H19         3.2115   17.4126   -6.9926 H         1 PHENYL      0.0698 
     51 H20         3.5845   19.5658   -8.0400 H         1 PHENYL      0.0291 
     52 H21         4.9650   19.9455   -6.8434 H         1 PHENYL      0.0291 
@<TRIPOS>BOND
     1    1    2 ar   
     2    2    3 ar   
     3    4    3 ar   
     4    5    4 ar   
     5    6    5 ar   
     6    6    1 ar   
     7    7    6 1    
     8    7    8 1    
     9    8    9 1    
    10    9   10 1    
    11   10   11 2    
    12   12   11 1    
    13   13   12 2    
    14    9   13 1    
    15    7   14 1    
    16   15   14 1    
    17   16   15 1    
    18   16   17 1    
    19   17    7 1    
    20    3   18 1    
    21    1   19 1    
    22    2   20 1    
    23    4   21 1    
    24    5   22 1    
    25    8   23 1    
    26    8   24 1    
    27   11   25 1    
    28   13   26 1    
    29   15   27 1    
    30   28   16 1    
    31   15   29 1    
    32   16   30 1    
    33   31   32 ar   
    34   31   39 ar   
    35   39   38 ar   
    36   34   28 1    
    37   28   35 1    
    38   28   36 1    
    39   38   37 ar   
    40   33   37 ar   
    41   32   33 ar   
    42   31   34 1    
    43   32   40 1    
    44   40   41 1    
    45   41   42 1    
    46   42   43 2    
    47   33   44 1    
    48   37   45 1    
    49   38   46 1    
    50   39   47 1    
    51   41   48 1    
    52   41   49 1    
    53   42   50 1    
    54   43   51 1    
    55   43   52 1    
@<TRIPOS>SUBSTRUCTURE
     1 PHENYL     31 PERM              0 ****  ****    0 ROOT 
@<TRIPOS>NORMAL
@<TRIPOS>FF_PBC
FORCE_FIELD_SETUP_FEATURE Force Field Setup information
v1.0  0 0.000000 0.000000 0.000000 0.000000 0.000000 0.000000 NONE 0 0 0 0 1 0 0 0 0 0 0 0 0
@<TRIPOS>RENDERING_ATTRS
ANTIALIASED_LINES 
*
