#	Name:			PISM00571
#	Creating user name:	baoopengkun
#	Creation time:		Wed Dec 19 10:55:03 2018

#	Modifying user name:	baoopengkun
#	Modification time:	Wed Dec 19 11:06:29 2018

@<TRIPOS>MOLECULE
PISM00571
   16    16     1     1     0
SMALL
USER_CHARGES


@<TRIPOS>ATOM
      1 O1         18.9342   27.8662  -38.6512 O.3       1 <1>         0.0000 
      2 C2         21.4310   28.3862  -41.9906 C.ar      1 <1>         0.0000 
      3 C3         20.5203   27.3276  -41.9476 C.ar      1 <1>         0.0000 
      4 C4         19.6869   27.1496  -40.8366 C.ar      1 <1>         0.0000 
      5 C5         19.7688   28.0432  -39.7603 C.ar      1 <1>         0.0000 
      6 C6         20.6844   29.1034  -39.8061 C.ar      1 <1>         0.0000 
      7 C7         21.5135   29.2756  -40.9175 C.ar      1 <1>         0.0000 
      8 H1         19.0426   28.5152  -37.9651 H         1 <1>         0.0000 
      9 C9         18.7074   25.9938  -40.8115 C.2       1 <1>         0.0000 
     10 O10        18.6536   25.2320  -41.7660 O.2       1 <1>         0.0000 
     11 O11        17.9112   25.8136  -39.7512 O.3       1 <1>         0.0000 
     12 Cl12       22.4677   28.5982  -43.3872 Cl        1 <1>         0.0000 
     13 H3         20.4686   26.6449  -42.7889 H         1 <1>         0.0000 
     14 H4         20.7604   29.8028  -38.9795 H         1 <1>         0.0000 
     15 H5         17.3320   25.0624  -39.8284 H         1 <1>         0.0000 
     16 H16        22.2205   30.0984  -40.9479 H         1 <1>         0.0000 
@<TRIPOS>BOND
     1    5    1 1    
     2    2    3 ar   
     3    3    4 ar   
     4    4    5 ar   
     5    5    6 ar   
     6    6    7 ar   
     7    2    7 ar   
     8    1    8 1    
     9    4    9 1    
    10    9   10 2    
    11    9   11 1    
    12    2   12 1    
    13    3   13 1    
    14    6   14 1    
    15   11   15 1    
    16    7   16 1    
@<TRIPOS>SUBSTRUCTURE
     1 ****        2 TEMP              0 ****  ****    0 ROOT 
@<TRIPOS>NORMAL
@<TRIPOS>FF_PBC
FORCE_FIELD_SETUP_FEATURE Force Field Setup information
v1.0  0 0.000000 0.000000 0.000000 0.000000 0.000000 0.000000 NONE 0 0 0 0 0 0 0 0 0 0 0 0 0
