#	Name:			PISM00042
#	Creating user name:	baoopengkun
#	Creation time:		Sat Nov 17 21:35:10 2018

#	Modifying user name:	baoopengkun
#	Modification time:	Sat Nov 17 21:40:27 2018

@<TRIPOS>MOLECULE
PISM00042
   37    38     1     2     0
SMALL
GAST_HUCK


@<TRIPOS>ATOM
      1 C1          1.4139   -6.5539   16.6427 C.ar      1 <1>        -0.0582 
      2 C2          0.9387   -7.5300   17.5235 C.ar      1 <1>        -0.0685 
      3 C3         -0.3143   -7.3817   18.1241 C.ar      1 <1>        -0.0687 
      4 C4         -1.0900   -6.2536   17.8446 C.ar      1 <1>        -0.0685 
      5 C5         -0.6198   -5.2862   16.9520 C.ar      1 <1>        -0.0582 
      6 C6          0.6290   -5.4362   16.3373 C.ar      1 <1>        -0.0184 
      7 C7          1.1233   -4.3702   15.3477 C.3       1 <1>         0.0736 
      8 N8          2.0997   -4.8832   14.3820 N.am      1 <1>        -0.2542 
      9 C9          1.9388   -5.9669   13.5782 C.2       1 <1>         0.2874 
     10 N10         0.8291   -6.7215   13.3895 N.am      1 <1>        -0.2233 
     11 C11        -0.4771   -6.4098   13.8420 C.ar      1 <1>         0.0599 
     12 C12        -1.1243   -7.2638   14.7388 C.ar      1 <1>        -0.0477 
     13 C13        -2.4133   -6.9647   15.1888 C.ar      1 <1>        -0.0737 
     14 C14        -3.0543   -5.7963   14.7609 C.ar      1 <1>        -0.0608 
     15 C15        -2.4168   -4.9623   13.8359 C.ar      1 <1>        -0.0737 
     16 C16        -1.1420   -5.2802   13.3589 C.ar      1 <1>        -0.0477 
     17 C17        -4.4415   -5.4131   15.2888 C.3       1 <1>        -0.0382 
     18 C18         1.7610   -3.2414   16.2039 C.3       1 <1>        -0.0321 
     19 O19         2.9270   -6.3176   12.9540 O.2       1 <1>        -0.3910 
     20 H1          2.3980   -6.6710   16.2018 H         1 <1>         0.0557 
     21 H2          1.5442   -8.4043   17.7419 H         1 <1>         0.0599 
     22 H3         -0.6843   -8.1408   18.8065 H         1 <1>         0.0559 
     23 H4         -2.0594   -6.1298   18.3178 H         1 <1>         0.0599 
     24 H5         -1.2335   -4.4172   16.7375 H         1 <1>         0.0557 
     25 H6          0.2862   -3.8945   14.8187 H         1 <1>         0.0714 
     26 H7          2.9958   -4.4365   14.3412 H         1 <1>         0.1882 
     27 H8          0.9392   -7.5523   12.8438 H         1 <1>         0.2232 
     28 H9         -0.6213   -8.1600   15.0863 H         1 <1>         0.0485 
     29 H10        -2.9074   -7.6440   15.8758 H         1 <1>         0.0520 
     30 H11        -2.9130   -4.0632   13.4845 H         1 <1>         0.0520 
     31 H12        -0.6655   -4.6529   12.6123 H         1 <1>         0.0485 
     32 H13        -4.8556   -6.1830   15.9570 H         1 <1>         0.0362 
     33 H14        -5.1303   -5.2757   14.4418 H         1 <1>         0.0362 
     34 H15        -4.3631   -4.4678   15.8465 H         1 <1>         0.0362 
     35 H16         1.0301   -2.8325   16.9197 H         1 <1>         0.0274 
     36 H17         2.1121   -2.4191   15.5606 H         1 <1>         0.0274 
     37 H18         2.6188   -3.6374   16.7696 H         1 <1>         0.0274 
@<TRIPOS>BOND
     1    2    1 ar   
     2    2    3 ar   
     3    3    4 ar   
     4    4    5 ar   
     5    5    6 ar   
     6    1    6 ar   
     7    6    7 1    
     8    7    8 1    
     9    8    9 am   
    10    9   10 am   
    11   10   11 1    
    12   11   12 ar   
    13   12   13 ar   
    14   13   14 ar   
    15   14   15 ar   
    16   15   16 ar   
    17   11   16 ar   
    18   14   17 1    
    19    7   18 1    
    20    9   19 2    
    21    1   20 1    
    22    2   21 1    
    23    3   22 1    
    24    4   23 1    
    25    5   24 1    
    26    7   25 1    
    27    8   26 1    
    28   10   27 1    
    29   12   28 1    
    30   13   29 1    
    31   15   30 1    
    32   16   31 1    
    33   17   32 1    
    34   17   33 1    
    35   17   34 1    
    36   18   35 1    
    37   18   36 1    
    38   18   37 1    
@<TRIPOS>SUBSTRUCTURE
     1 ****        2 TEMP              0 ****  ****    0 ROOT 
@<TRIPOS>NORMAL
@<TRIPOS>FF_PBC
FORCE_FIELD_SETUP_FEATURE Force Field Setup information
v1.0  0 0.000000 0.000000 0.000000 0.000000 0.000000 0.000000 NONE 0 0 0 0 1 0 0 0 0 0 0 0 0
@<TRIPOS>RENDERING_ATTRS
ANTIALIASED_LINES 
*
