#	Name:			PISM00280
#	Creating user name:	baoopengkun
#	Creation time:		Sun Mar 31 17:37:08 2019

#	Modifying user name:	baoopengkun
#	Modification time:	Sun Mar 31 18:24:55 2019

@<TRIPOS>MOLECULE
PISM00280
   57    58     1     1     0
SMALL
GAST_HUCK


@<TRIPOS>ATOM
      1 C1         -4.4952   -0.4327   -4.5197 C.ar      1 <1>        -0.0795 
      2 C2         -3.1035   -0.3145   -4.5793 C.ar      1 <1>        -0.0432 
      3 C3         -2.3813   -0.9532   -5.5961 C.ar      1 <1>         0.1176 
      4 C4         -3.0730   -1.7513   -6.5159 C.ar      1 <1>         0.1167 
      5 C5         -4.4627   -1.8750   -6.4443 C.ar      1 <1>        -0.0403 
      6 C6         -5.1931   -1.1832   -5.4714 C.ar      1 <1>        -0.0595 
      7 O7         -0.9885   -0.8164   -5.7206 O.3       1 <1>        -0.3259 
      8 C8         -0.2180    0.0259   -4.8487 C.3       1 <1>         0.0567 
      9 O9         -2.3811   -2.4339   -7.5208 O.3       1 <1>        -0.3256 
     10 C10        -1.6195   -3.5623   -7.0607 C.3       1 <1>         0.0568 
     11 C11        -6.7073   -1.2144   -5.4046 C.2       1 <1>        -0.0763 
     12 C12        -7.4944   -1.4336   -6.4669 C.2       1 <1>        -0.0658 
     13 C13        -9.0028   -1.4493   -6.3794 C.3       1 <1>         0.0303 
     14 N14        -9.5796   -0.2024   -6.9489 N.3       1 <1>        -0.2788 
     15 C15        -9.2793    1.0431   -6.1896 C.3       1 <1>         0.0057 
     16 C16       -10.6321    2.5999   -2.8513 C.2       1 <1>         0.2335 
     17 O17       -11.2673    1.6393   -2.4506 O.2       1 <1>        -0.3704 
     18 O18       -10.6268    3.7114   -2.0895 O.3       1 <1>        -0.2802 
     19 C19        -9.8659    4.8426   -2.5580 C.3       1 <1>         0.0658 
     20 C20        -9.3839   -0.0482   -8.4149 C.3       1 <1>         0.0353 
     21 C21        -9.8060   -1.2954   -9.2022 C.ar      1 <1>        -0.0285 
     22 C22        -8.9100   -1.9635  -10.0449 C.ar      1 <1>        -0.0585 
     23 C23        -9.3253   -3.0908  -10.7598 C.ar      1 <1>        -0.0546 
     24 C24       -10.6364   -3.5570  -10.6340 C.ar      1 <1>         0.0330 
     25 C25       -11.5309   -2.8986   -9.7860 C.ar      1 <1>        -0.0546 
     26 C26       -11.1147   -1.7721   -9.0707 C.ar      1 <1>        -0.0585 
     27 Cl27      -11.1581   -4.9638  -11.5378 Cl        1 <1>        -0.0771 
     28 C28       -10.0442    1.1185   -4.8391 C.3       1 <1>        -0.0215 
     29 C29        -9.8876    2.5129   -4.1678 C.3       1 <1>         0.0499 
     30 H1         -5.0369    0.0716   -3.7253 H         1 <1>         0.0472 
     31 H2         -2.6088    0.2820   -3.8227 H         1 <1>         0.0508 
     32 H3         -4.9557   -2.5269   -7.1552 H         1 <1>         0.0473 
     33 H4         -0.2733   -0.3252   -3.8069 H         1 <1>         0.0573 
     34 H5         -0.5507    1.0731   -4.9165 H         1 <1>         0.0573 
     35 H6          0.8311   -0.0266   -5.1749 H         1 <1>         0.0573 
     36 H7         -2.2791   -4.3028   -6.5822 H         1 <1>         0.0573 
     37 H8         -0.8349   -3.2627   -6.3495 H         1 <1>         0.0573 
     38 H9         -1.1392   -4.0289   -7.9331 H         1 <1>         0.0573 
     39 H10        -7.1669   -1.0307   -4.4333 H         1 <1>         0.0412 
     40 H11        -7.0646   -1.5963   -7.4536 H         1 <1>         0.0691 
     41 H12        -9.3404   -1.5817   -5.3424 H         1 <1>         0.0617 
     42 H13        -9.3714   -2.3366   -6.9160 H         1 <1>         0.0617 
     43 H14        -9.5984    1.9177   -6.7793 H         1 <1>         0.0432 
     44 H15        -8.1954    1.1417   -6.0180 H         1 <1>         0.0432 
     45 H16        -9.9946    5.6357   -1.8069 H         1 <1>         0.0577 
     46 H17       -10.2369    5.2337   -3.5172 H         1 <1>         0.0577 
     47 H18        -8.7896    4.6239   -2.6258 H         1 <1>         0.0577 
     48 H19        -8.3390    0.2265   -8.6281 H         1 <1>         0.0592 
     49 H20       -10.0261    0.7616   -8.7953 H         1 <1>         0.0592 
     50 H21        -7.8882   -1.6130  -10.1507 H         1 <1>         0.0558 
     51 H22        -8.6303   -3.6062  -11.4149 H         1 <1>         0.0606 
     52 H23       -12.5478   -3.2634   -9.6849 H         1 <1>         0.0606 
     53 H24       -11.8106   -1.2657   -8.4089 H         1 <1>         0.0558 
     54 H25        -9.6660    0.3610   -4.1356 H         1 <1>         0.0303 
     55 H26       -11.1115    0.9163   -5.0284 H         1 <1>         0.0303 
     56 H27       -10.2832    3.2757   -4.8546 H         1 <1>         0.0519 
     57 H28        -8.8145    2.6895   -4.0014 H         1 <1>         0.0519 
@<TRIPOS>BOND
     1    1    2 ar   
     2    2    3 ar   
     3    4    3 ar   
     4    5    4 ar   
     5    6    5 ar   
     6    6    1 ar   
     7    3    7 1    
     8    7    8 1    
     9    4    9 1    
    10    9   10 1    
    11   11    6 1    
    12   12   11 2    
    13   13   12 1    
    14   14   13 1    
    15   15   14 1    
    16   28   15 1    
    17   16   17 2    
    18   16   18 1    
    19   18   19 1    
    20   14   20 1    
    21   20   21 1    
    22   21   22 ar   
    23   22   23 ar   
    24   23   24 ar   
    25   25   24 ar   
    26   26   25 ar   
    27   21   26 ar   
    28   24   27 1    
    29   29   28 1    
    30   16   29 1    
    31    1   30 1    
    32    2   31 1    
    33    5   32 1    
    34    8   33 1    
    35    8   34 1    
    36    8   35 1    
    37   10   36 1    
    38   10   37 1    
    39   10   38 1    
    40   11   39 1    
    41   12   40 1    
    42   13   41 1    
    43   13   42 1    
    44   15   43 1    
    45   15   44 1    
    46   19   45 1    
    47   19   46 1    
    48   19   47 1    
    49   20   48 1    
    50   20   49 1    
    51   22   50 1    
    52   23   51 1    
    53   25   52 1    
    54   26   53 1    
    55   28   54 1    
    56   28   55 1    
    57   29   56 1    
    58   29   57 1    
@<TRIPOS>SUBSTRUCTURE
     1 ****       16 TEMP              0 ****  ****    0 ROOT 
@<TRIPOS>NORMAL
@<TRIPOS>FF_PBC
FORCE_FIELD_SETUP_FEATURE Force Field Setup information
v1.0  0 0.000000 0.000000 0.000000 0.000000 0.000000 0.000000 NONE 0 0 0 0 1 0 0 0 0 0 0 0 0
