#	Name:			PISM00758.1
#	Creating user name:	baoopengkun
#	Creation time:		Sun Dec 02 11:38:55 2018

#	Modifying user name:	baoopengkun
#	Modification time:	Sun Dec 02 11:41:57 2018

@<TRIPOS>MOLECULE
PISM00758.1
   27    28     1     2     0
SMALL
GAST_HUCK


@<TRIPOS>ATOM
      1 C1         -3.3221    5.3620   -4.0720 C.2       1 <1>         0.1055 
      2 C2         -4.1620    6.2955   -3.2574 C.3       1 <1>         0.0168 
      3 C3         -3.9545    5.6934   -1.8387 C.3       1 <1>        -0.0339 
      4 C4         -2.5248    5.0815   -1.8079 C.3       1 <1>        -0.0251 
      5 C5         -2.3662    4.6402   -3.2346 C.2       1 <1>         0.0183 
      6 O6         -3.4212    5.2166   -5.2789 O.2       1 <1>        -0.4001 
      7 C7         -1.4904    3.7266   -3.6644 C.2       1 <1>         0.0764 
      8 O8         -0.6675    3.1369   -2.7850 O.3       1 <1>        -0.2718 
      9 C9          0.2100    2.1554   -3.3663 C.3       1 <1>         0.2384 
     10 O10         1.0533    1.6564   -2.3089 O.3       1 <1>        -0.2305 
     11 C11         0.7607    0.3667   -2.2003 C.2       1 <1>         0.2495 
     12 C12        -0.2377   -0.1311   -3.1391 C.2       1 <1>         0.0293 
     13 C13        -0.5641    0.9480   -3.8470 C.2       1 <1>        -0.0010 
     14 C14        -0.7719   -1.5305   -3.2789 C.3       1 <1>        -0.0323 
     15 O15         1.2992   -0.3493   -1.3737 O.2       1 <1>        -0.3691 
     16 H1         -5.2187    6.2940   -3.5683 H         1 <1>         0.0476 
     17 H2         -3.7475    7.3120   -3.3413 H         1 <1>         0.0476 
     18 H3         -4.6808    4.8733   -1.7021 H         1 <1>         0.0302 
     19 H4         -4.1151    6.4344   -1.0389 H         1 <1>         0.0302 
     20 H5         -2.4318    4.2590   -1.0801 H         1 <1>         0.0354 
     21 H6         -1.7698    5.8540   -1.5920 H         1 <1>         0.0354 
     22 H7         -1.4945    3.5107   -4.7353 H         1 <1>         0.1073 
     23 H8          0.8514    2.5798   -4.1574 H         1 <1>         0.1210 
     24 H9         -1.2930    0.9496   -4.6565 H         1 <1>         0.0706 
     25 H10        -0.3099   -2.1934   -2.5320 H         1 <1>         0.0347 
     26 H11        -0.5466   -1.9146   -4.2849 H         1 <1>         0.0347 
     27 H12        -1.8618   -1.5287   -3.1287 H         1 <1>         0.0347 
@<TRIPOS>BOND
     1    2    1 1    
     2    2    3 1    
     3    3    4 1    
     4    4    5 1    
     5    1    5 1    
     6    1    6 2    
     7    5    7 2    
     8    7    8 1    
     9    8    9 1    
    10    9   10 1    
    11   10   11 1    
    12   11   12 1    
    13   12   13 2    
    14    9   13 1    
    15   12   14 1    
    16   11   15 2    
    17    2   16 1    
    18    2   17 1    
    19    3   18 1    
    20    3   19 1    
    21    4   20 1    
    22    4   21 1    
    23    7   22 1    
    24    9   23 1    
    25   13   24 1    
    26   14   25 1    
    27   14   26 1    
    28   14   27 1    
@<TRIPOS>SUBSTRUCTURE
     1 ****        2 TEMP              0 ****  ****    0 ROOT 
@<TRIPOS>NORMAL
@<TRIPOS>FF_PBC
FORCE_FIELD_SETUP_FEATURE Force Field Setup information
v1.0  0 0.000000 0.000000 0.000000 0.000000 0.000000 0.000000 NONE 0 0 0 0 1 0 0 0 0 0 0 0 0
@<TRIPOS>RENDERING_ATTRS
ANTIALIASED_LINES 
*
