#	Name:			PISM00739
#	Creating user name:	baoopengkun
#	Creation time:		Sun Jan 20 22:20:31 2019

#	Modifying user name:	baoopengkun
#	Modification time:	Sun Jan 20 22:24:39 2019

@<TRIPOS>MOLECULE
PISM00739
   85    88     1     1     0
SMALL
GAST_HUCK
INVALID_CHARGES

@<TRIPOS>ATOM
      1 C1          0.4884    0.7825    3.1841 C.3       1 <1>        -0.0161 
      2 C2          0.6418   -0.5457    3.9845 C.3       1 <1>         0.0849 
      3 C3          1.9569   -0.5528    4.8098 C.3       1 <1>         0.0837 
      4 C4          2.0898    0.7030    5.7066 C.3       1 <1>        -0.0028 
      5 C5          1.9990    1.9737    4.8167 C.3       1 <1>         0.0681 
      6 C6          0.6411    2.0802    4.0402 C.3       1 <1>        -0.0055 
      7 C7          0.6290    3.3833    3.1410 C.3       1 <1>        -0.0276 
      8 C8          2.0248    3.7280    2.5249 C.3       1 <1>        -0.0063 
      9 C9          2.9768    4.3565    3.6016 C.3       1 <1>         0.0801 
     10 O10         2.5340    4.3995    4.9788 O.3       1 <1>        -0.2763 
     11 C11         2.2310    3.2440    5.5953 C.2       1 <1>         0.2374 
     12 O12         2.1219    3.2416    6.8094 O.2       1 <1>        -0.3701 
     13 C13        -0.4683    3.4298    2.0322 C.3       1 <1>        -0.0487 
     14 C14        -0.6025    4.8550    1.3961 C.3       1 <1>        -0.0468 
     15 C15         0.7585    5.6004    1.1509 C.3       1 <1>        -0.0257 
     16 C16         1.8759    4.5235    1.1811 C.3       1 <1>        -0.0298 
     17 C17         3.1313    5.1729    0.5503 C.3       1 <1>        -0.0491 
     18 C18         2.5322    6.2037   -0.4490 C.3       1 <1>        -0.0491 
     19 C19         0.9765    6.1750   -0.2974 C.3       1 <1>        -0.0304 
     20 O20         0.7606   -1.7038    3.1242 O.3       1 <1>        -0.3772 
     21 O21         3.2110   -0.5333    4.0731 O.3       1 <1>        -0.3891 
     22 C22         2.3591   10.7310   -3.0974 C.3       1 <1>        -0.0417 
     23 C23        -0.5549    2.1842    5.0523 C.3       1 <1>        -0.0568 
     24 C24         0.9805    6.7252    2.2128 C.3       1 <1>        -0.0590 
     25 C25         0.3035    7.5401   -0.6889 C.3       1 <1>        -0.0120 
     26 C26         0.7105    7.9834   -2.1357 C.3       1 <1>         0.0841 
     27 C27         0.1636    9.3984   -2.5377 C.3       1 <1>         0.0841 
     28 C28         1.0064   10.1343   -3.6369 C.3       1 <1>        -0.0130 
     29 C29         3.5009   -1.6841    3.2571 C.3       1 <1>         0.0000 
     30 C30         2.2042   12.0977   -2.3660 C.3       1 <1>        -0.0623 
     31 C31         3.4240   10.8633   -4.2265 C.3       1 <1>        -0.0623 
     32 C32        -1.2453    7.4771   -0.5575 C.3       1 <1>        -0.0597 
     33 O33         0.2691    6.9634   -3.0556 O.3       1 <1>        -0.3890 
     34 O34        -1.2090    9.2803   -2.9547 O.3       1 <1>        -0.3890 
     35 C35         0.1463   11.2232   -4.3485 C.3       1 <1>        -0.0597 
     36 H1         -0.4973    0.7551    2.6948 H         1 <1>         0.0000 
     37 H2          1.2562    0.7684    2.3964 H         1 <1>         0.0000 
     38 H3         -0.2159   -0.7022    4.6598 H         1 <1>         0.0000 
     39 H4          1.9620   -1.4411    5.4654 H         1 <1>         0.0000 
     40 H5          3.0675    0.6817    6.2193 H         1 <1>         0.0000 
     41 H6          1.3294    0.6940    6.4995 H         1 <1>         0.0000 
     42 H7          2.8578    1.8487    4.1464 H         1 <1>         0.0000 
     43 H8          0.3565    4.2169    3.8026 H         1 <1>         0.0000 
     44 H9          2.4968    2.7949    2.1762 H         1 <1>         0.0000 
     45 H10         3.1099    5.4273    3.4188 H         1 <1>         0.0000 
     46 H11         3.9840    3.9098    3.5535 H         1 <1>         0.0000 
     47 H12        -1.4600    3.1530    2.4198 H         1 <1>         0.0000 
     48 H13        -0.2273    2.6891    1.2540 H         1 <1>         0.0000 
     49 H14        -1.2310    5.4567    2.0729 H         1 <1>         0.0000 
     50 H15        -1.1622    4.7362    0.4548 H         1 <1>         0.0000 
     51 H16         1.5835    3.7879    0.4066 H         1 <1>         0.0000 
     52 H17         3.7691    4.4226    0.0515 H         1 <1>         0.0000 
     53 H18         3.7639    5.6948    1.2816 H         1 <1>         0.0000 
     54 H19         2.8377    5.9602   -1.4809 H         1 <1>         0.0000 
     55 H20         2.9246    7.2059   -0.2075 H         1 <1>         0.0000 
     56 H21         0.5983    5.4252   -1.0135 H         1 <1>         0.0000 
     57 H22        -0.0034   -1.8230    2.5696 H         1 <1>         0.0000 
     58 H23         2.7946   10.0397   -2.3591 H         1 <1>         0.0000 
     59 H24        -1.5128    2.2962    4.5290 H         1 <1>         0.0000 
     60 H25        -0.4372    3.0545    5.7149 H         1 <1>         0.0000 
     61 H26        -0.6763    1.3083    5.6978 H         1 <1>         0.0000 
     62 H27         0.9414    6.3462    3.2399 H         1 <1>         0.0000 
     63 H28         0.1916    7.4860    2.1445 H         1 <1>         0.0000 
     64 H29         1.9448    7.2339    2.0774 H         1 <1>         0.0000 
     65 H30         0.6770    8.3205   -0.0064 H         1 <1>         0.0000 
     66 H31         1.8062    8.0164   -2.1853 H         1 <1>         0.0000 
     67 H32         0.1451   10.0502   -1.6523 H         1 <1>         0.0000 
     68 H33         1.2452    9.3813   -4.4050 H         1 <1>         0.0000 
     69 H34         3.3102   -2.6324    3.7827 H         1 <1>         0.0000 
     70 H35         4.5732   -1.6330    3.0186 H         1 <1>         0.0000 
     71 H36         2.9584   -1.6590    2.3021 H         1 <1>         0.0000 
     72 H37         3.1609   12.3900   -1.9057 H         1 <1>         0.0000 
     73 H38         1.4509   12.0438   -1.5669 H         1 <1>         0.0000 
     74 H39         1.9169   12.8947   -3.0670 H         1 <1>         0.0000 
     75 H40         3.6058    9.8891   -4.7065 H         1 <1>         0.0000 
     76 H41         4.3806   11.2163   -3.8097 H         1 <1>         0.0000 
     77 H42         3.1072   11.5785   -4.9988 H         1 <1>         0.0000 
     78 H43        -1.7047    8.4563   -0.7468 H         1 <1>         0.0000 
     79 H44        -1.5509    7.1980    0.4565 H         1 <1>         0.0000 
     80 H45        -1.6640    6.7463   -1.2652 H         1 <1>         0.0000 
     81 H46         0.5620    7.0992   -3.9506 H         1 <1>         0.0000 
     82 H47        -1.3166    8.7017   -3.7019 H         1 <1>         0.0000 
     83 H48         0.7412   11.8043   -5.0672 H         1 <1>         0.0000 
     84 H49        -0.2881   11.9139   -3.6099 H         1 <1>         0.0000 
     85 H50        -0.6824   10.7695   -4.9133 H         1 <1>         0.0000 
@<TRIPOS>BOND
     1    1    2 1    
     2    2    3 1    
     3    4    3 1    
     4    5    4 1    
     5    6    5 1    
     6    6    1 1    
     7    7    6 1    
     8    8    7 1    
     9    8    9 1    
    10    9   10 1    
    11   10   11 1    
    12   11   12 2    
    13   11    5 1    
    14   13    7 1    
    15   14   13 1    
    16   15   14 1    
    17   15   16 1    
    18   16    8 1    
    19   16   17 1    
    20   18   17 1    
    21   19   18 1    
    22   19   15 1    
    23    2   20 1    
    24    3   21 1    
    25   28   22 1    
    26    6   23 1    
    27   15   24 1    
    28   25   19 1    
    29   26   25 1    
    30   27   26 1    
    31   27   28 1    
    32   21   29 1    
    33   22   30 1    
    34   22   31 1    
    35   25   32 1    
    36   26   33 1    
    37   27   34 1    
    38   28   35 1    
    39    1   36 1    
    40    1   37 1    
    41    2   38 1    
    42    3   39 1    
    43    4   40 1    
    44    4   41 1    
    45    5   42 1    
    46    7   43 1    
    47    8   44 1    
    48    9   45 1    
    49    9   46 1    
    50   13   47 1    
    51   13   48 1    
    52   14   49 1    
    53   14   50 1    
    54   16   51 1    
    55   17   52 1    
    56   17   53 1    
    57   18   54 1    
    58   18   55 1    
    59   19   56 1    
    60   20   57 1    
    61   22   58 1    
    62   23   59 1    
    63   23   60 1    
    64   23   61 1    
    65   24   62 1    
    66   24   63 1    
    67   24   64 1    
    68   25   65 1    
    69   26   66 1    
    70   27   67 1    
    71   28   68 1    
    72   29   69 1    
    73   29   70 1    
    74   29   71 1    
    75   30   72 1    
    76   30   73 1    
    77   30   74 1    
    78   31   75 1    
    79   31   76 1    
    80   31   77 1    
    81   32   78 1    
    82   32   79 1    
    83   32   80 1    
    84   33   81 1    
    85   34   82 1    
    86   35   83 1    
    87   35   84 1    
    88   35   85 1    
@<TRIPOS>SUBSTRUCTURE
     1 ****        2 TEMP              0 ****  ****    0 ROOT 
@<TRIPOS>NORMAL
@<TRIPOS>FF_PBC
FORCE_FIELD_SETUP_FEATURE Force Field Setup information
v1.0  0 0.000000 0.000000 0.000000 0.000000 0.000000 0.000000 NONE 0 0 0 0 1 0 0 0 0 0 0 0 0
