#	Name:			PISM01007.1
#	Creating user name:	malab
#	Creation time:		Mon Jul 01 21:55:25 2019

#	Modifying user name:	malab
#	Modification time:	Mon Jul 01 22:04:24 2019

@<TRIPOS>MOLECULE
PISM01007.1
   58    60     1     2     0
SMALL
GAST_HUCK


@<TRIPOS>ATOM
      1 C1          4.3659   17.9031   26.8121 C.3       1 <1>        -0.0652 
      2 C2          5.7411   17.3175   27.2257 C.3       1 <1>        -0.0535 
      3 C3          6.1101   16.0831   26.3588 C.3       1 <1>        -0.0253 
      4 C4          7.4842   15.4921   26.7611 C.3       1 <1>         0.0704 
      5 O5          7.7532   14.3599   25.9177 O.3       1 <1>        -0.3180 
      6 C6          8.9739   13.7405   26.1782 C.ar      1 <1>         0.0912 
      7 C7          9.0480   12.7103   27.1190 C.ar      1 <1>        -0.0313 
      8 C8         10.2760   12.1003   27.3913 C.ar      1 <1>        -0.0440 
      9 C9         11.4299   12.5175   26.7211 C.ar      1 <1>         0.0971 
     10 C10        11.3506   13.5385   25.7691 C.ar      1 <1>        -0.0440 
     11 C11        10.1232   14.1498   25.4977 C.ar      1 <1>        -0.0313 
     12 S12        13.0011   11.7972   27.1233 S.o2      1 <1>         0.0658 
     13 O13        13.9065   11.9720   26.0046 O.2       1 <1>        -0.1515 
     14 O14        12.7916   10.4694   27.6664 O.2       1 <1>        -0.1515 
     15 N15        13.4363   12.8646   28.3770 N.am      1 <1>        -0.2314 
     16 C16        14.1003   14.1239   28.0649 C.3       1 <1>         0.0499 
     17 C17        13.1705   15.2748   28.5204 C.3       1 <1>         0.0529 
     18 N18        12.7543   15.0018   29.9009 N.am      1 <1>        -0.2456 
     19 C19        12.1100   13.7250   30.2194 C.3       1 <1>         0.0529 
     20 C20        13.0433   12.5825   29.7519 C.3       1 <1>         0.0499 
     21 C21        12.9387   15.9190   30.8869 C.2       1 <1>         0.3250 
     22 O22        12.6026   15.7281   32.0447 O.2       1 <1>        -0.3773 
     23 C23        13.6486   18.0421   31.5753 C.3       1 <1>         0.1312 
     24 C24        12.2926   18.5791   31.9738 C.2       1 <1>        -0.0333 
     25 C25        12.1414   19.8808   31.7298 C.2       1 <1>        -0.0025 
     26 C26        13.3887   20.3663   31.1455 C.2       1 <1>         0.1195 
     27 C27        14.4131   19.2820   31.0238 C.3       1 <1>         0.0593 
     28 O28        13.5806   21.5190   30.7969 O.2       1 <1>        -0.3910 
     29 C29        10.9111   20.7004   32.0109 C.3       1 <1>        -0.0348 
     30 O30        13.5249   17.0673   30.5200 O.3       1 <1>        -0.2441 
     31 H1          4.3853   18.2222   25.7583 H         1 <1>         0.0230 
     32 H2          4.1216   18.7762   27.4378 H         1 <1>         0.0230 
     33 H3          3.5733   17.1490   26.9386 H         1 <1>         0.0230 
     34 H4          5.7036   17.0245   28.2883 H         1 <1>         0.0263 
     35 H5          6.5139   18.0955   27.1088 H         1 <1>         0.0263 
     36 H6          6.1477   16.3723   25.2956 H         1 <1>         0.0291 
     37 H7          5.3411   15.3020   26.4759 H         1 <1>         0.0291 
     38 H8          7.4611   15.1786   27.8180 H         1 <1>         0.0614 
     39 H9          8.2702   16.2545   26.6316 H         1 <1>         0.0614 
     40 H10         8.1494   12.3885   27.6350 H         1 <1>         0.0542 
     41 H11        10.3342   11.3035   28.1250 H         1 <1>         0.0608 
     42 H12        12.2429   13.8583   25.2418 H         1 <1>         0.0608 
     43 H13        10.0568   14.9429   24.7602 H         1 <1>         0.0542 
     44 H14        14.3282   14.2218   26.9921 H         1 <1>         0.0498 
     45 H15        15.0479   14.1761   28.6240 H         1 <1>         0.0498 
     46 H16        12.2705   15.2793   27.8855 H         1 <1>         0.0538 
     47 H17        13.6931   16.2314   28.3623 H         1 <1>         0.0538 
     48 H18        11.1616   13.6672   29.6623 H         1 <1>         0.0538 
     49 H19        11.8801   13.5848   31.2885 H         1 <1>         0.0538 
     50 H20        12.5334   11.6118   29.8526 H         1 <1>         0.0498 
     51 H21        13.9450   12.5654   30.3843 H         1 <1>         0.0498 
     52 H22        14.1793   17.6305   32.4523 H         1 <1>         0.0851 
     53 H23        11.5044   17.9716   32.4176 H         1 <1>         0.0681 
     54 H24        15.3002   19.5403   31.6229 H         1 <1>         0.0534 
     55 H25        14.7016   19.1588   29.9688 H         1 <1>         0.0534 
     56 H26        10.0848   20.3558   31.3715 H         1 <1>         0.0347 
     57 H27        11.1014   21.7644   31.8047 H         1 <1>         0.0347 
     58 H28        10.6211   20.5895   33.0664 H         1 <1>         0.0347 
@<TRIPOS>BOND
     1    2    1 1    
     2    3    2 1    
     3    4    3 1    
     4    5    4 1    
     5    6    5 1    
     6    7    6 ar   
     7    8    7 ar   
     8    9    8 ar   
     9    9   10 ar   
    10   10   11 ar   
    11   11    6 ar   
    12   12    9 1    
    13   12   13 2    
    14   12   14 2    
    15   15   12 1    
    16   16   15 1    
    17   17   16 1    
    18   18   17 1    
    19   18   19 1    
    20   19   20 1    
    21   20   15 1    
    22   21   18 am   
    23   21   22 2    
    24   30   21 1    
    25   23   24 1    
    26   24   25 2    
    27   26   25 1    
    28   27   26 1    
    29   23   27 1    
    30   26   28 2    
    31   25   29 1    
    32   23   30 1    
    33    1   31 1    
    34    1   32 1    
    35    1   33 1    
    36    2   34 1    
    37    2   35 1    
    38    3   36 1    
    39    3   37 1    
    40    4   38 1    
    41    4   39 1    
    42    7   40 1    
    43    8   41 1    
    44   10   42 1    
    45   11   43 1    
    46   16   44 1    
    47   16   45 1    
    48   17   46 1    
    49   17   47 1    
    50   19   48 1    
    51   19   49 1    
    52   20   50 1    
    53   20   51 1    
    54   23   52 1    
    55   24   53 1    
    56   27   54 1    
    57   27   55 1    
    58   29   56 1    
    59   29   57 1    
    60   29   58 1    
@<TRIPOS>SUBSTRUCTURE
     1 ****       23 TEMP              0 ****  ****    0 ROOT 
@<TRIPOS>NORMAL
@<TRIPOS>FF_PBC
FORCE_FIELD_SETUP_FEATURE Force Field Setup information
v1.0  0 0.000000 0.000000 0.000000 0.000000 0.000000 0.000000 NONE 0 0 0 0 1 0 0 0 0 0 0 0 0
@<TRIPOS>RENDERING_ATTRS
ANTIALIASED_LINES 
1,2,3,4,5,6,7,8,9,10,11,12,13,14,15,16,17,18,19,20,21,22,23,24,25,26,27,28,29,30
