#	Name:			PISM00200
#	Creating user name:	14062
#	Creation time:		Wed Jun 19 15:19:13 2019

#	Modifying user name:	14062
#	Modification time:	Wed Jun 19 15:22:34 2019

@<TRIPOS>MOLECULE
PISM00200
   31    31     1     1     0
SMALL
GAST_HUCK


@<TRIPOS>ATOM
      1 C1         -4.9255   -0.9902   -3.1978 C.3       1 BENZYL      0.1806 
      2 O2         -4.6559   -2.2864   -3.7780 O.3       1 BENZYL     -0.2917 
      3 C2         -3.3222   -2.5743   -4.0782 C.ar      1 BENZYL      0.1096 
      4 C3         -2.8668   -2.4812   -5.3968 C.ar      1 BENZYL     -0.0315 
      5 C4         -1.5210   -2.7139   -5.6947 C.ar      1 BENZYL     -0.0564 
      6 C5         -0.6311   -3.0628   -4.6755 C.ar      1 BENZYL      0.0291 
      7 C6         -1.0922   -3.1945   -3.3631 C.ar      1 BENZYL     -0.0426 
      8 C7         -2.4385   -2.9649   -3.0659 C.ar      1 BENZYL      0.0688 
      9 Cl9         1.0595   -3.3364   -5.0427 Cl        1 BENZYL     -0.0810 
     10 Cl10       -3.0084   -3.1759   -1.4220 Cl        1 BENZYL     -0.0787 
     11 C11        -6.3653   -0.9216   -2.7191 C.2       1 BENZYL      0.2656 
     12 O12        -7.1962   -1.7401   -3.0744 O.2       1 BENZYL     -0.3672 
     13 O13        -6.7486    0.0584   -1.8906 O.3       1 BENZYL     -0.2904 
     14 C14        -4.6452    0.1480   -4.2193 C.3       1 BENZYL     -0.0032 
     15 C15        -5.6239    0.0938   -5.4256 C.3       1 BENZYL     -0.0483 
     16 H1         -4.2816   -0.8609   -2.3134 H         1 BENZYL      0.0913 
     17 H2         -3.5590   -2.2280   -6.1917 H         1 BENZYL      0.0543 
     18 H3         -1.1653   -2.6246   -6.7162 H         1 BENZYL      0.0597 
     19 H4         -0.4039   -3.4768   -2.5738 H         1 BENZYL      0.0601 
     20 H5         -6.0686    0.6687   -1.6357 H         1 BENZYL      0.2540 
     21 H6         -3.6065    0.0640   -4.5750 H         1 BENZYL      0.0320 
     22 H7         -4.7458    1.1286   -3.7266 H         1 BENZYL      0.0320 
     23 C23        -5.2357    1.1315   -6.5138 C.3       1 BENZYL     -0.0557 
     24 H9         -6.6494    0.3048   -5.0802 H         1 BENZYL      0.0268 
     25 H10        -5.6180   -0.9152   -5.8666 H         1 BENZYL      0.0268 
     26 H8         -4.2170    0.9199   -6.8800 H         1 BENZYL      0.0263 
     27 H11        -5.2425    2.1445   -6.0777 H         1 BENZYL      0.0263 
     28 C28        -6.2204    1.0867   -7.7112 C.3       1 BENZYL     -0.0653 
     29 H12        -5.9264    1.8270   -8.4721 H         1 BENZYL      0.0230 
     30 H13        -7.2440    1.3168   -7.3762 H         1 BENZYL      0.0230 
     31 H14        -6.2164    0.0877   -8.1746 H         1 BENZYL      0.0230 
@<TRIPOS>BOND
     1    2    3 1    
     2    3    4 ar   
     3    3    8 ar   
     4    8    7 ar   
     5    7    6 ar   
     6    6    5 ar   
     7    5    4 ar   
     8    2    1 1    
     9    6    9 1    
    10    8   10 1    
    11    1   11 1    
    12   11   12 2    
    13   11   13 1    
    14    1   14 1    
    15   14   15 1    
    16    1   16 1    
    17    4   17 1    
    18    5   18 1    
    19    7   19 1    
    20   13   20 1    
    21   14   21 1    
    22   14   22 1    
    23   15   23 1    
    24   15   24 1    
    25   15   25 1    
    26   23   26 1    
    27   23   27 1    
    28   23   28 1    
    29   28   29 1    
    30   28   30 1    
    31   28   31 1    
@<TRIPOS>SUBSTRUCTURE
     1 BENZYL      2 PERM              0 ****  ****    0 ROOT 
@<TRIPOS>NORMAL
@<TRIPOS>FF_PBC
FORCE_FIELD_SETUP_FEATURE Force Field Setup information
v1.0  0 0.000000 0.000000 0.000000 0.000000 0.000000 0.000000 NONE 0 0 0 0 1 0 0 0 0 0 0 0 0
