#	Name:			M00129
#	Creating user name:	XiyangLee
#	Creation time:		Tue Aug 31 17:59:41 2021

#	Modifying user name:	XiyangLee
#	Modification time:	Tue Aug 31 18:01:22 2021

@<TRIPOS>MOLECULE
5185526
   54    57     1     1     1
SMALL
GAST_HUCK
****
From 3DB ct
@<TRIPOS>ATOM
      1 O           4.8011   -2.0919    0.9055 O.2       1 <1>        -0.3939 
      2 C           4.5591   -1.1919    0.1175 C.2       1 <1>         0.2095 
      3 N           5.5702   -0.5221   -0.5110 N.am      1 <1>        -0.2710 
      4 C           5.3213    0.5776   -1.4486 C.3       1 <1>         0.0342 
      5 H           4.2687    0.7963   -1.6747 H         1 <1>         0.0522 
      6 H           5.8095    0.3404   -2.4078 H         1 <1>         0.0522 
      7 C           5.9728    1.8469   -0.8444 C.3       1 <1>        -0.0299 
      8 H           5.8667    2.6907   -1.5467 H         1 <1>         0.0287 
      9 H           5.4441    2.1041    0.0879 H         1 <1>         0.0287 
     10 C           7.4761    1.5978   -0.5378 C.3       1 <1>        -0.0402 
     11 H           7.9986    1.3769   -1.4854 H         1 <1>         0.0299 
     12 C           7.6284    0.3755    0.4096 C.3       1 <1>        -0.0299 
     13 H           7.1416    0.5936    1.3742 H         1 <1>         0.0287 
     14 H           8.6956    0.1721    0.5985 H         1 <1>         0.0287 
     15 C           6.9593   -0.8777   -0.2076 C.3       1 <1>         0.0342 
     16 H           7.4741   -1.1512   -1.1426 H         1 <1>         0.0522 
     17 H           7.0767   -1.7252    0.4876 H         1 <1>         0.0522 
     18 C           8.1260    2.8617    0.0883 C.3       1 <1>        -0.0623 
     19 H           8.0361    3.7188   -0.5971 H         1 <1>         0.0232 
     20 H           7.6334    3.1196    1.0385 H         1 <1>         0.0232 
     21 H           9.1952    2.6856    0.2845 H         1 <1>         0.0232 
     22 C           3.0969   -0.8736   -0.1102 C.3       1 <1>         0.1596 
     23 H           2.8670   -1.0320   -1.1744 H         1 <1>         0.0860 
     24 H           2.9183    0.1753    0.1712 H         1 <1>         0.0860 
     25 O           2.2241   -1.7079    0.6789 O.3       1 <1>        -0.2964 
     26 C           0.8646   -1.4485    0.5094 C.ar      1 <1>         0.0961 
     27 C           0.1845   -0.6602    1.4405 C.ar      1 <1>        -0.0310 
     28 H           0.7174   -0.2644    2.2988 H         1 <1>         0.0548 
     29 C          -1.1756   -0.3877    1.2667 C.ar      1 <1>        -0.0605 
     30 H          -1.7068    0.1890    2.0173 H         1 <1>         0.0598 
     31 C          -1.8500   -0.8667    0.1380 C.ar      1 <1>        -0.0109 
     32 C          -3.3054   -0.5316   -0.1056 C.2       1 <1>         0.0803 
     33 N          -4.0832   -1.4747   -0.4644 N.2       1 <1>        -0.1772 
     34 N          -5.4182   -1.3275   -0.6552 N.pl3     1 <1>        -0.1630 
     35 C          -6.0396   -0.1937   -0.4615 C.2       1 <1>         0.2403 
     36 O          -7.2456   -0.0788   -0.6156 O.2       1 <1>        -0.3805 
     37 C          -5.2386    1.0162   -0.0405 C.ar      1 <1>         0.0643 
     38 C          -3.8553    0.8677    0.0672 C.ar      1 <1>         0.0171 
     39 C          -3.0589    1.9933    0.3077 C.ar      1 <1>        -0.0479 
     40 H          -1.9774    1.9255    0.2806 H         1 <1>         0.0631 
     41 C          -3.6575    3.2283    0.5752 C.ar      1 <1>        -0.0575 
     42 H          -3.0403    4.0924    0.8029 H         1 <1>         0.0650 
     43 C          -5.0494    3.3545    0.5477 C.ar      1 <1>        -0.0567 
     44 H          -5.5141    4.3097    0.7736 H         1 <1>         0.0625 
     45 C          -5.8421    2.2498    0.2242 C.ar      1 <1>        -0.0414 
     46 H          -6.9218    2.3514    0.1775 H         1 <1>         0.0667 
     47 C          -6.1802   -2.4981   -1.0758 C.3       1 <1>         0.0567 
     48 H          -6.6659   -2.3023   -2.0442 H         1 <1>         0.0557 
     49 H          -6.9504   -2.7367   -0.3261 H         1 <1>         0.0557 
     50 H          -5.5171   -3.3698   -1.1862 H         1 <1>         0.0557 
     51 C          -1.1740   -1.6838   -0.7741 C.ar      1 <1>        -0.0605 
     52 H          -1.7009   -2.0900   -1.6320 H         1 <1>         0.0598 
     53 C           0.1799   -1.9781   -0.5874 C.ar      1 <1>        -0.0310 
     54 H           0.7020   -2.6175   -1.2915 H         1 <1>         0.0548 
@<TRIPOS>BOND
     1    1    2 2    
     2    2    3 am   
     3    3    4 1    
     4    4    5 1    
     5    4    6 1    
     6    4    7 1    
     7    7    8 1    
     8    7    9 1    
     9    7   10 1    
    10   10   11 1    
    11   10   12 1    
    12   12   13 1    
    13   12   14 1    
    14   12   15 1    
    15   15   16 1    
    16   15   17 1    
    17   15    3 1    
    18   10   18 1    
    19   18   19 1    
    20   18   20 1    
    21   18   21 1    
    22    2   22 1    
    23   22   23 1    
    24   22   24 1    
    25   22   25 1    
    26   25   26 1    
    27   26   27 ar   
    28   27   28 1    
    29   27   29 ar   
    30   29   30 1    
    31   29   31 ar   
    32   31   32 1    
    33   32   33 2    
    34   33   34 1    
    35   34   35 1    
    36   35   36 2    
    37   35   37 1    
    38   37   38 ar   
    39   38   32 1    
    40   38   39 ar   
    41   39   40 1    
    42   39   41 ar   
    43   41   42 1    
    44   41   43 ar   
    45   43   44 1    
    46   43   45 ar   
    47   45   46 1    
    48   45   37 ar   
    49   34   47 1    
    50   47   48 1    
    51   47   49 1    
    52   47   50 1    
    53   31   51 ar   
    54   51   52 1    
    55   51   53 ar   
    56   53   54 1    
    57   53   26 ar   
@<TRIPOS>SUBSTRUCTURE
     1 ****        1 TEMP              0 ****  ****    0 ROOT 
@<TRIPOS>SET
UNITY_3DHIT     STATIC     ATOMS    <user>   **** Atoms matching 3D or FLEX Search
0
@<TRIPOS>NORMAL
@<TRIPOS>FF_PBC
FORCE_FIELD_SETUP_FEATURE Force Field Setup information
v1.0  0 0.000000 0.000000 0.000000 0.000000 0.000000 0.000000 NONE 0 0 0 0 1 0 0 0 0 0 0 0 0
