#	Name:			PISM00022
#	Creating user name:	baoopengkun
#	Creation time:		Sat Nov 17 16:45:44 2018

#	Modifying user name:	baoopengkun
#	Modification time:	Sat Nov 17 16:51:09 2018

@<TRIPOS>MOLECULE
PISM00022
   66    70     1     2     0
SMALL
GAST_HUCK


@<TRIPOS>ATOM
      1 C1          1.8965   -5.6013   13.0804 C.ar      1 <1>        -0.0523 
      2 C2          1.6351   -4.2577   12.8002 C.ar      1 <1>        -0.0390 
      3 C3          0.3325   -3.7591   12.9079 C.ar      1 <1>         0.0635 
      4 C4         -0.7058   -4.6093   13.2991 C.ar      1 <1>         0.0178 
      5 C5         -0.4493   -5.9573   13.5798 C.ar      1 <1>        -0.0065 
      6 C6          0.8564   -6.4498   13.4692 C.ar      1 <1>        -0.0463 
      7 C7         -1.5022   -6.7947   13.9668 C.ar      1 <1>        -0.0463 
      8 C8         -2.8002   -6.2880   14.0731 C.ar      1 <1>        -0.0523 
      9 C9         -3.0505   -4.9420   13.7939 C.ar      1 <1>        -0.0390 
     10 C10        -2.0031   -4.0997   13.4053 C.ar      1 <1>         0.0635 
     11 C11         0.0303   -2.3076   12.6047 C.2       1 <1>         0.2335 
     12 N12        -1.2306   -1.8346   12.7334 N.am      1 <1>        -0.1843 
     13 C13        -2.2556   -2.6401   13.0956 C.2       1 <1>         0.2335 
     14 O14        -3.3999   -2.2244   13.1781 O.2       1 <1>        -0.3768 
     15 O15         0.9505   -1.5933   12.2409 O.2       1 <1>        -0.3768 
     16 C16        -1.5050   -0.4288   12.4142 C.3       1 <1>         0.0702 
     17 C17        -1.8738   -0.3355   10.9124 C.3       1 <1>         0.0238 
     18 N18        -2.1643    1.0487   10.4622 N.3       1 <1>        -0.2962 
     19 C19        -1.0177    1.9864   10.4005 C.3       1 <1>         0.0193 
     20 C20        -1.3836    3.1659    9.4673 C.3       1 <1>         0.0455 
     21 N21        -2.6508    3.7489    9.9160 N.am      1 <1>        -0.2734 
     22 C22        -3.8057    2.8675   10.1017 C.3       1 <1>         0.0455 
     23 C23        -3.3888    1.6822   11.0069 C.3       1 <1>         0.0193 
     24 C24        -2.8098    5.0938   10.0638 C.2       1 <1>         0.1892 
     25 O25        -3.9054    5.5787   10.2949 O.2       1 <1>        -0.3938 
     26 C26        -1.7080    6.0731    9.9602 C.2       1 <1>         0.0044 
     27 C27        -1.8408    7.2017    9.2494 C.2       1 <1>        -0.0490 
     28 C28        -0.7671    8.2599    9.0801 C.ar      1 <1>        -0.0334 
     29 C29        -1.1489    9.5332    8.6430 C.ar      1 <1>        -0.0674 
     30 C30        -0.2069   10.5540    8.4826 C.ar      1 <1>        -0.0342 
     31 C31         1.1443   10.3208    8.7684 C.ar      1 <1>         0.1264 
     32 C32         1.5325    9.0444    9.1921 C.ar      1 <1>         0.1250 
     33 C33         0.5896    8.0229    9.3320 C.ar      1 <1>        -0.0287 
     34 O34         2.1187   11.3253    8.6427 O.3       1 <1>        -0.3203 
     35 C35         1.8029   12.6514    8.1884 C.3       1 <1>         0.0587 
     36 O36         2.8728    8.7752    9.4809 O.3       1 <1>        -0.3237 
     37 C37         3.7086    8.6237    8.3221 C.3       1 <1>         0.0570 
     38 H1          2.9087   -5.9859   12.9958 H         1 <1>         0.0635 
     39 H2          2.4482   -3.6046   12.4988 H         1 <1>         0.0700 
     40 H3          1.0732   -7.4920   13.6834 H         1 <1>         0.0686 
     41 H4         -1.3216   -7.8425   14.1873 H         1 <1>         0.0686 
     42 H5         -3.6156   -6.9403   14.3729 H         1 <1>         0.0635 
     43 H6         -4.0611   -4.5549   13.8801 H         1 <1>         0.0700 
     44 H7         -0.6314    0.2084   12.6232 H         1 <1>         0.0589 
     45 H8         -2.3308   -0.0367   13.0283 H         1 <1>         0.0589 
     46 H9         -2.7533   -0.9704   10.7201 H         1 <1>         0.0450 
     47 H10        -1.0446   -0.7470   10.3152 H         1 <1>         0.0450 
     48 H11        -0.1182    1.4832   10.0085 H         1 <1>         0.0446 
     49 H12        -0.7846    2.3817   11.4024 H         1 <1>         0.0446 
     50 H13        -1.5411    2.7639    8.4536 H         1 <1>         0.0533 
     51 H14        -0.5323    3.8580    9.4112 H         1 <1>         0.0533 
     52 H15        -4.1097    2.4797    9.1163 H         1 <1>         0.0533 
     53 H16        -4.6808    3.3599   10.5576 H         1 <1>         0.0533 
     54 H17        -4.2197    0.9592   11.0558 H         1 <1>         0.0446 
     55 H18        -3.2005    2.0629   12.0239 H         1 <1>         0.0446 
     56 H19        -0.7952    5.8461   10.5032 H         1 <1>         0.0608 
     57 H20        -2.7994    7.3725    8.7573 H         1 <1>         0.0727 
     58 H21        -2.1923    9.7411    8.4251 H         1 <1>         0.0545 
     59 H22        -0.5531   11.5196    8.1352 H         1 <1>         0.0531 
     60 H23         0.9461    7.0458    9.6310 H         1 <1>         0.0540 
     61 H24         2.7363   13.2335    8.1800 H         1 <1>         0.0577 
     62 H25         1.0939   13.1457    8.8702 H         1 <1>         0.0577 
     63 H26         1.3977   12.6322    7.1650 H         1 <1>         0.0577 
     64 H27         4.7315    8.4071    8.6639 H         1 <1>         0.0573 
     65 H28         3.7290    9.5418    7.7150 H         1 <1>         0.0573 
     66 H29         3.3584    7.7847    7.7008 H         1 <1>         0.0573 
@<TRIPOS>BOND
     1    2    1 ar   
     2    2    3 ar   
     3    3    4 ar   
     4    4    5 ar   
     5    5    6 ar   
     6    1    6 ar   
     7    5    7 ar   
     8    7    8 ar   
     9    8    9 ar   
    10    9   10 ar   
    11    4   10 ar   
    12    3   11 1    
    13   11   12 am   
    14   12   13 am   
    15   10   13 1    
    16   13   14 2    
    17   11   15 2    
    18   12   16 1    
    19   16   17 1    
    20   17   18 1    
    21   18   19 1    
    22   19   20 1    
    23   20   21 1    
    24   21   22 1    
    25   22   23 1    
    26   18   23 1    
    27   21   24 am   
    28   24   25 2    
    29   24   26 1    
    30   26   27 2    
    31   27   28 1    
    32   28   29 ar   
    33   29   30 ar   
    34   30   31 ar   
    35   31   32 ar   
    36   32   33 ar   
    37   28   33 ar   
    38   31   34 1    
    39   34   35 1    
    40   32   36 1    
    41   36   37 1    
    42    1   38 1    
    43    2   39 1    
    44    6   40 1    
    45    7   41 1    
    46    8   42 1    
    47    9   43 1    
    48   16   44 1    
    49   16   45 1    
    50   17   46 1    
    51   17   47 1    
    52   19   48 1    
    53   19   49 1    
    54   20   50 1    
    55   20   51 1    
    56   22   52 1    
    57   22   53 1    
    58   23   54 1    
    59   23   55 1    
    60   26   56 1    
    61   27   57 1    
    62   29   58 1    
    63   30   59 1    
    64   33   60 1    
    65   35   61 1    
    66   35   62 1    
    67   35   63 1    
    68   37   64 1    
    69   37   65 1    
    70   37   66 1    
@<TRIPOS>SUBSTRUCTURE
     1 ****        2 TEMP              0 ****  ****    0 ROOT 
@<TRIPOS>NORMAL
@<TRIPOS>FF_PBC
FORCE_FIELD_SETUP_FEATURE Force Field Setup information
v1.0  0 0.000000 0.000000 0.000000 0.000000 0.000000 0.000000 NONE 0 0 0 0 1 0 0 0 0 0 0 0 0
@<TRIPOS>RENDERING_ATTRS
ANTIALIASED_LINES 
*
