#	Name:			PISM00211
#	Creating user name:	14062
#	Creation time:		Mon Apr 01 20:10:24 2019

#	Modifying user name:	14062
#	Modification time:	Mon Apr 01 20:37:48 2019

@<TRIPOS>MOLECULE
PISM00211
   38    40     1     2     0
SMALL
GAST_HUCK


@<TRIPOS>ATOM
      1 N1          1.5869    0.7166    6.2832 N.pl3     1 <1>        -0.2884 
      2 C2          0.4422    0.0041    6.2831 C.ar      1 <1>         0.0606 
      3 C3          0.1835   -0.4507    5.0042 C.ar      1 <1>        -0.0191 
      4 C4         -0.9509   -1.2008    4.6990 C.ar      1 <1>        -0.0746 
      5 C5         -1.8109   -1.5066    5.7619 C.ar      1 <1>        -0.0792 
      6 C6         -1.5420   -1.0606    7.0653 C.ar      1 <1>        -0.0767 
      7 C7          1.3672    0.0702    4.2289 C.2       1 <1>        -0.0229 
      8 C8          2.1313    0.7592    5.0942 C.2       1 <1>         0.0195 
      9 C9         -0.4097   -0.2840    7.3491 C.ar      1 <1>        -0.0442 
     10 C10         1.6359   -0.1539    2.7627 C.3       1 <1>         0.0780 
     11 C11         1.3638   -1.5960    2.4251 C.2       1 <1>         0.2397 
     12 O12         0.5576   -1.9229    1.5676 O.2       1 <1>        -0.3687 
     13 O13         2.0599   -2.4940    3.1195 O.3       1 <1>        -0.2917 
     14 C14         0.7969    0.8132    1.8830 C.3       1 <1>        -0.0180 
     15 C15        -0.7648    3.8445    1.3507 C.ar      1 <1>        -0.0603 
     16 C16         0.4628    3.2048    1.1408 C.ar      1 <1>        -0.0428 
     17 H1          1.9849    1.1711    7.1199 H         1 <1>         0.2219 
     18 H2         -1.1562   -1.5299    3.6856 H         1 <1>         0.0540 
     19 H3         -2.6997   -2.0995    5.5717 H         1 <1>         0.0510 
     20 C20        -1.3140    4.6669    0.3619 C.ar      1 <1>        -0.0686 
     21 H4         -2.2233   -1.3195    7.8690 H         1 <1>         0.0530 
     22 C22         1.0763    2.3020    2.2234 C.3       1 <1>        -0.0157 
     23 H5          3.0605    1.2661    4.8306 H         1 <1>         0.0804 
     24 H6         -0.2019    0.0760    8.3493 H         1 <1>         0.0541 
     25 H7          2.7075    0.0150    2.5669 H         1 <1>         0.0636 
     26 H8          1.8280   -3.3756    2.8502 H         1 <1>         0.2540 
     27 H9         -0.2789    0.5999    2.0101 H         1 <1>         0.0329 
     28 H10         1.0614    0.6230    0.8294 H         1 <1>         0.0329 
     29 H11        -1.2993    3.7038    2.2842 H         1 <1>         0.0557 
     30 H12        -2.2649    5.1634    0.5317 H         1 <1>         0.0599 
     31 H13         2.1612    2.4891    2.2668 H         1 <1>         0.0429 
     32 H14         0.6695    2.5447    3.2192 H         1 <1>         0.0429 
     33 H15        -1.0650    5.4938   -1.6174 H         1 <1>         0.0559 
     34 H16         1.0986    4.3416   -2.0142 H         1 <1>         0.0599 
     35 H17         2.0833    2.9132   -0.2550 H         1 <1>         0.0557 
     36 C40        -0.6407    4.8527   -0.8497 C.ar      1 <1>        -0.0687 
     37 C42         0.5798    4.2099   -1.0701 C.ar      1 <1>        -0.0686 
     38 C43         1.1303    3.3964   -0.0750 C.ar      1 <1>        -0.0603 
@<TRIPOS>BOND
     1    8    1 1    
     2    2    1 1    
     3    3    2 ar   
     4    7    3 1    
     5    3    4 ar   
     6    4    5 ar   
     7    5    6 ar   
     8    7    8 2    
     9    9    6 ar   
    10    2    9 ar   
    11   10    7 1    
    12   10   11 1    
    13   11   12 2    
    14   11   13 1    
    15   14   10 1    
    16   15   20 ar   
    17   16   15 ar   
    18   16   38 ar   
    19   22   16 1    
    20    1   17 1    
    21    4   18 1    
    22    5   19 1    
    23   22   14 1    
    24    6   21 1    
    25    8   23 1    
    26    9   24 1    
    27   10   25 1    
    28   13   26 1    
    29   14   27 1    
    30   14   28 1    
    31   15   29 1    
    32   20   30 1    
    33   22   31 1    
    34   22   32 1    
    35   36   33 1    
    36   37   34 1    
    37   38   35 1    
    38   20   36 ar   
    39   37   36 ar   
    40   38   37 ar   
@<TRIPOS>SUBSTRUCTURE
     1 ****        7 TEMP              0 ****  ****    0 ROOT 
@<TRIPOS>NORMAL
@<TRIPOS>FF_PBC
FORCE_FIELD_SETUP_FEATURE Force Field Setup information
v1.0  0 0.000000 0.000000 0.000000 0.000000 0.000000 0.000000 NONE 0 0 0 0 1 0 0 0 0 0 0 0 0
@<TRIPOS>RENDERING_ATTRS
ANTIALIASED_LINES 
*
