#	Name:			PISM01033
#	Creating user name:	malab
#	Creation time:		Tue Jul 02 17:12:55 2019

#	Modifying user name:	malab
#	Modification time:	Tue Jul 02 17:16:02 2019

@<TRIPOS>MOLECULE
PISM01033
   40    41     1     1     0
SMALL
GAST_HUCK


@<TRIPOS>ATOM
      1 N1         -6.1196    1.1630   -5.0809 N.pl3     1 <1>        -0.1706 
      2 C2         -6.2983    0.0842   -5.7823 C.2       1 <1>         0.1284 
      3 N3         -5.2389   -0.5868   -5.8190 N.2       1 <1>        -0.2870 
      4 C4         -4.2028    0.0660   -5.0681 C.2       1 <1>         0.0618 
      5 N5         -4.8257    1.1068   -4.6567 N.2       1 <1>        -0.1897 
      6 C6         -7.0939    2.2022   -4.7618 C.3       1 <1>         0.1222 
      7 C7         -6.8519    2.6333   -3.2772 C.3       1 <1>         0.0945 
      8 O8         -7.0058    1.4473   -2.4676 O.3       1 <1>        -0.3879 
      9 C9         -7.7690    3.7486   -2.6542 C.3       1 <1>        -0.0085 
     10 C10        -7.6451    3.6794   -1.0971 C.3       1 <1>        -0.0576 
     11 C11        -7.3263    5.1895   -3.0630 C.3       1 <1>        -0.0576 
     12 C12        -9.2643    3.5280   -3.0252 C.3       1 <1>        -0.0576 
     13 C13        -6.9142    3.2957   -5.8468 C.3       1 <1>         0.0165 
     14 C14        -6.8271    2.6302   -7.2285 C.ar      1 <1>        -0.0396 
     15 C15        -5.5818    2.3275   -7.7917 C.ar      1 <1>        -0.0596 
     16 C16        -5.5042    1.7050   -9.0407 C.ar      1 <1>        -0.0546 
     17 C17        -6.6725    1.3836   -9.7360 C.ar      1 <1>         0.0330 
     18 C18        -7.9179    1.6882   -9.1809 C.ar      1 <1>        -0.0546 
     19 C19        -7.9945    2.3093   -7.9310 C.ar      1 <1>        -0.0596 
     20 Cl20       -6.5763    0.6003  -11.2999 Cl        1 <1>        -0.0771 
     21 H1         -7.2212   -0.2158   -6.2776 H         1 <1>         0.1361 
     22 H2         -3.1720   -0.2393   -4.8943 H         1 <1>         0.0864 
     23 H3         -8.1001    1.7611   -4.8434 H         1 <1>         0.0729 
     24 H4         -5.8075    2.9772   -3.1794 H         1 <1>         0.0633 
     25 H5         -6.3914    0.7497   -2.6793 H         1 <1>         0.2099 
     26 H6         -6.5900    3.7584   -0.7923 H         1 <1>         0.0236 
     27 H7         -8.0481    2.7355   -0.6995 H         1 <1>         0.0236 
     28 H8         -8.2020    4.4966   -0.6131 H         1 <1>         0.0236 
     29 H9         -7.4346    5.3874   -4.1333 H         1 <1>         0.0236 
     30 H10        -6.2742    5.3640   -2.7901 H         1 <1>         0.0236 
     31 H11        -7.9385    5.9414   -2.5415 H         1 <1>         0.0236 
     32 H12        -9.4413    3.6841   -4.0983 H         1 <1>         0.0236 
     33 H13        -9.9060    4.2348   -2.4769 H         1 <1>         0.0236 
     34 H14        -9.5754    2.5050   -2.7627 H         1 <1>         0.0236 
     35 H15        -5.9961    3.8697   -5.6477 H         1 <1>         0.0459 
     36 H16        -7.7667    3.9875   -5.8747 H         1 <1>         0.0459 
     37 H17        -4.6672    2.5680   -7.2588 H         1 <1>         0.0557 
     38 H18        -4.5368    1.4691   -9.4721 H         1 <1>         0.0606 
     39 H19        -8.8251    1.4408   -9.7229 H         1 <1>         0.0606 
     40 H20        -8.9675    2.5385   -7.5080 H         1 <1>         0.0557 
@<TRIPOS>BOND
     1    2    1 1    
     2    2    3 2    
     3    3    4 1    
     4    4    5 2    
     5    1    5 1    
     6    1    6 1    
     7    6    7 1    
     8    7    8 1    
     9    7    9 1    
    10    9   10 1    
    11    9   11 1    
    12    9   12 1    
    13    6   13 1    
    14   13   14 1    
    15   14   15 ar   
    16   15   16 ar   
    17   16   17 ar   
    18   17   18 ar   
    19   18   19 ar   
    20   14   19 ar   
    21   17   20 1    
    22    2   21 1    
    23    4   22 1    
    24    6   23 1    
    25    7   24 1    
    26    8   25 1    
    27   10   26 1    
    28   10   27 1    
    29   10   28 1    
    30   11   29 1    
    31   11   30 1    
    32   11   31 1    
    33   12   32 1    
    34   12   33 1    
    35   12   34 1    
    36   13   35 1    
    37   13   36 1    
    38   15   37 1    
    39   16   38 1    
    40   18   39 1    
    41   19   40 1    
@<TRIPOS>SUBSTRUCTURE
     1 ****        2 TEMP              0 ****  ****    0 ROOT 
@<TRIPOS>NORMAL
@<TRIPOS>FF_PBC
FORCE_FIELD_SETUP_FEATURE Force Field Setup information
v1.0  0 0.000000 0.000000 0.000000 0.000000 0.000000 0.000000 NONE 0 0 0 0 1 0 0 0 0 0 0 0 0
