#	Name:			PISM00857.1
#	Creating user name:	baoopengkun
#	Creation time:		Thu Dec 13 15:12:19 2018

#	Modifying user name:	baoopengkun
#	Modification time:	Thu Dec 13 20:14:14 2018

@<TRIPOS>MOLECULE
PISM00857.1
   24    25     1     1     0
SMALL
GAST_HUCK


@<TRIPOS>ATOM
      1 Br1        -0.1132   -0.6291    1.8807 Br        1 <1>        -0.0615 
      2 C2          1.9814   -1.7327    3.4147 C.ar      1 <1>        -0.0628 
      3 C3          3.2763   -1.7797    3.9400 C.ar      1 <1>        -0.0364 
      4 C4          4.2032   -0.7907    3.6015 C.ar      1 <1>         0.1271 
      5 C5          3.8387    0.2387    2.7310 C.ar      1 <1>         0.0032 
      6 C6          2.5530    0.2730    2.1848 C.ar      1 <1>         0.1062 
      7 C7          1.6150   -0.7006    2.5452 C.ar      1 <1>         0.0366 
      8 F8          5.4331   -0.8293    4.1065 F         1 <1>        -0.1839 
      9 O9          2.2139    1.2829    1.2853 O.3       1 <1>        -0.2697 
     10 C10         2.3330    0.9216   -0.0993 C.3       1 <1>         0.2364 
     11 O11         2.0222    2.0906   -0.8829 O.3       1 <1>        -0.2312 
     12 C12         3.1419    2.3884   -1.5302 C.2       1 <1>         0.2495 
     13 C13         4.2594    1.4794   -1.3025 C.2       1 <1>         0.0292 
     14 C14         3.7642    0.5856   -0.4491 C.2       1 <1>        -0.0018 
     15 C15         5.6381    1.5290   -1.9020 C.3       1 <1>        -0.0323 
     16 O16         3.2225    3.3535   -2.2704 O.2       1 <1>        -0.3691 
     17 H1          1.2598   -2.4978    3.6834 H         1 <1>         0.0606 
     18 H2          3.5666   -2.5810    4.6117 H         1 <1>         0.0518 
     19 H3          4.5556    1.0120    2.4778 H         1 <1>         0.0534 
     20 H4          1.6514    0.1019   -0.3787 H         1 <1>         0.1200 
     21 H5          4.3180   -0.2665   -0.0569 H         1 <1>         0.0705 
     22 H6          5.9441    0.5245   -2.2305 H         1 <1>         0.0347 
     23 H7          6.3517    1.8958   -1.1494 H         1 <1>         0.0347 
     24 H8          5.6518    2.2066   -2.7688 H         1 <1>         0.0347 
@<TRIPOS>BOND
     1    7    1 1    
     2    2    3 ar   
     3    3    4 ar   
     4    4    5 ar   
     5    5    6 ar   
     6    6    7 ar   
     7    2    7 ar   
     8    4    8 1    
     9    6    9 1    
    10    9   10 1    
    11   10   11 1    
    12   11   12 1    
    13   12   13 1    
    14   13   14 2    
    15   10   14 1    
    16   13   15 1    
    17   12   16 2    
    18    2   17 1    
    19    3   18 1    
    20    5   19 1    
    21   10   20 1    
    22   14   21 1    
    23   15   22 1    
    24   15   23 1    
    25   15   24 1    
@<TRIPOS>SUBSTRUCTURE
     1 ****        2 TEMP              0 ****  ****    0 ROOT 
@<TRIPOS>NORMAL
@<TRIPOS>FF_PBC
FORCE_FIELD_SETUP_FEATURE Force Field Setup information
v1.0  0 0.000000 0.000000 0.000000 0.000000 0.000000 0.000000 NONE 0 0 0 0 1 0 0 0 0 0 0 0 0
