#	Name:			PISM00844
#	Creating user name:	baoopengkun
#	Creation time:		Thu Dec 13 14:40:19 2018

#	Modifying user name:	baoopengkun
#	Modification time:	Thu Dec 13 15:00:05 2018

@<TRIPOS>MOLECULE
PISM00844
   36    37     1     1     0
SMALL
GAST_HUCK


@<TRIPOS>ATOM
      1 C1        -10.6930   21.8149    7.2976 C.ar      1 <1>         0.0017 
      2 C2        -10.8756   22.1284    5.9474 C.ar      1 <1>        -0.0461 
      3 C3        -10.2000   21.4247    4.9377 C.ar      1 <1>        -0.0625 
      4 C4         -9.3255   20.4014    5.3342 C.ar      1 <1>        -0.0461 
      5 C5         -9.1364   20.0828    6.6820 C.ar      1 <1>         0.0017 
      6 C6         -9.8297   20.7837    7.6686 C.ar      1 <1>         0.1361 
      7 C7        -10.3824   21.7315    3.4244 C.3       1 <1>        -0.0569 
      8 O8         -9.6604   20.4570    9.0127 O.3       1 <1>        -0.2451 
      9 C9        -10.6493   19.5341    9.4876 C.3       1 <1>         0.2442 
     10 C10       -10.4731   19.3815   10.9784 C.2       1 <1>        -0.0003 
     11 C11       -11.5428   19.8421   11.6241 C.2       1 <1>         0.0293 
     12 C12       -12.4279   20.2788   10.5501 C.2       1 <1>         0.2496 
     13 O13       -11.9664   20.0963    9.3198 O.3       1 <1>        -0.2298 
     14 C14       -11.7900   19.8878   13.1073 C.3       1 <1>        -0.0323 
     15 O15       -13.5216   20.7738   10.7596 O.2       1 <1>        -0.3691 
     16 C16        -9.0089   22.1376    2.8115 C.3       1 <1>        -0.0904 
     17 C17       -11.3818   22.8965    3.1433 C.3       1 <1>        -0.0904 
     18 C18       -10.9325   20.4619    2.7086 C.3       1 <1>        -0.0904 
     19 H1        -11.2217   22.3710    8.0652 H         1 <1>         0.0651 
     20 H2        -11.5595   22.9354    5.7191 H         1 <1>         0.0823 
     21 H3         -8.7716   19.8285    4.6004 H         1 <1>         0.0823 
     22 H4         -8.4519   19.2909    6.9681 H         1 <1>         0.0651 
     23 H5        -10.5800   18.5582    8.9785 H         1 <1>         0.1218 
     24 H6         -9.5890   18.9597   11.4550 H         1 <1>         0.0706 
     25 H7        -11.4187   18.9681   13.5839 H         1 <1>         0.0347 
     26 H8        -12.8677   19.9826   13.3085 H         1 <1>         0.0347 
     27 H9        -11.2677   20.7544   13.5388 H         1 <1>         0.0347 
     28 H10        -8.2703   21.3258    2.8663 H         1 <1>         0.0117 
     29 H11        -8.6035   23.0079    3.3504 H         1 <1>         0.0117 
     30 H12        -9.1205   22.4078    1.7502 H         1 <1>         0.0117 
     31 H13       -11.4786   23.0754    2.0612 H         1 <1>         0.0117 
     32 H14       -11.0320   23.8356    3.5991 H         1 <1>         0.0117 
     33 H15       -12.3862   22.6567    3.5250 H         1 <1>         0.0117 
     34 H16       -11.1140   20.6638    1.6418 H         1 <1>         0.0117 
     35 H17       -11.8840   20.1566    3.1708 H         1 <1>         0.0117 
     36 H18       -10.2351   19.6148    2.7684 H         1 <1>         0.0117 
@<TRIPOS>BOND
     1    2    1 ar   
     2    2    3 ar   
     3    3    4 ar   
     4    4    5 ar   
     5    5    6 ar   
     6    1    6 ar   
     7    3    7 1    
     8    6    8 1    
     9    8    9 1    
    10    9   10 1    
    11   10   11 2    
    12   11   12 1    
    13   12   13 1    
    14    9   13 1    
    15   11   14 1    
    16   12   15 2    
    17    7   16 1    
    18    7   17 1    
    19    7   18 1    
    20    1   19 1    
    21    2   20 1    
    22    4   21 1    
    23    5   22 1    
    24    9   23 1    
    25   10   24 1    
    26   14   25 1    
    27   14   26 1    
    28   14   27 1    
    29   16   28 1    
    30   16   29 1    
    31   16   30 1    
    32   17   31 1    
    33   17   32 1    
    34   17   33 1    
    35   18   34 1    
    36   18   35 1    
    37   18   36 1    
@<TRIPOS>SUBSTRUCTURE
     1 ****        2 TEMP              0 ****  ****    0 ROOT 
@<TRIPOS>NORMAL
@<TRIPOS>FF_PBC
FORCE_FIELD_SETUP_FEATURE Force Field Setup information
v1.0  0 0.000000 0.000000 0.000000 0.000000 0.000000 0.000000 NONE 0 0 0 0 1 0 0 0 0 0 0 0 0
