#	Name:			PISM00805.1
#	Creating user name:	baoopengkun
#	Creation time:		Sat Dec 15 02:32:28 2018

#	Modifying user name:	baoopengkun
#	Modification time:	Sat Dec 15 02:35:38 2018

@<TRIPOS>MOLECULE
PISM00805.1
   27    28     1     1     0
SMALL
GAST_HUCK


@<TRIPOS>ATOM
      1 S1         -0.6048   19.6760  -49.6314 S.3       1 PHENYL     -0.0481 
      2 Cl2        -5.4594   15.7458  -50.6137 Cl        1 PHENYL     -0.0771 
      3 C          -4.1353   16.8490  -50.3008 C.ar      1 PHENYL      0.0330 
      4 C          -3.0435   16.4314  -49.5350 C.ar      1 PHENYL     -0.0538 
      5 C          -1.9787   17.3059  -49.2985 C.ar      1 PHENYL     -0.0489 
      6 C          -1.9920   18.5897  -49.8526 C.ar      1 PHENYL      0.0211 
      7 C          -3.1038   19.0205  -50.5826 C.ar      1 PHENYL     -0.0489 
      8 C          -4.1705   18.1478  -50.8156 C.ar      1 PHENYL     -0.0538 
      9 C9          0.6027   18.8109  -51.9743 C.2       1 PHENYL     -0.0043 
     10 C10         1.6259   19.4719  -52.5129 C.2       1 PHENYL      0.0177 
     11 C11         2.4268   19.8300  -51.3467 C.2       1 PHENYL      0.2303 
     12 O12         1.9529   19.4189  -50.1745 O.3       1 PHENYL     -0.2521 
     13 C13         1.8945   19.7811  -53.9605 C.3       1 PHENYL     -0.0422 
     14 C14        -0.5617   18.1757  -52.6898 C.3       1 PHENYL     -0.0241 
     15 O15         3.4664   20.4605  -51.4329 O.2       1 PHENYL     -0.3822 
     16 C16         0.7156   18.7379  -50.4683 C.3       1 PHENYL      0.1803 
     17 H1         -3.0250   15.4273  -49.1236 H         1 PHENYL      0.0606 
     18 H2         -1.1458   16.9848  -48.6818 H         1 PHENYL      0.0566 
     19 H3         -3.1377   20.0337  -50.9708 H         1 PHENYL      0.0566 
     20 H4         -5.0267   18.4761  -51.3960 H         1 PHENYL      0.0606 
     21 H5          2.7526   20.4639  -54.0503 H         1 PHENYL      0.0303 
     22 H6          1.0122   20.2591  -54.4116 H         1 PHENYL      0.0303 
     23 H7          2.1211   18.8513  -54.5029 H         1 PHENYL      0.0303 
     24 H8         -0.3103   17.9794  -53.7425 H         1 PHENYL      0.0429 
     25 H9         -1.4246   18.8546  -52.6639 H         1 PHENYL      0.0429 
     26 H10        -0.8343   17.2212  -52.2149 H         1 PHENYL      0.0429 
     27 H11         0.7772   17.6993  -50.1107 H         1 PHENYL      0.0994 
@<TRIPOS>BOND
     1    1    6 1    
     2    4    3 ar   
     3    8    3 ar   
     4    7    8 ar   
     5    6    7 ar   
     6    6    5 ar   
     7    5    4 ar   
     8    3    2 1    
     9   16    1 1    
    10    9   10 2    
    11   10   11 1    
    12   16   12 1    
    13   16    9 1    
    14   10   13 1    
    15    9   14 1    
    16   11   15 2    
    17   11   12 1    
    18    4   17 1    
    19    5   18 1    
    20    7   19 1    
    21    8   20 1    
    22   13   21 1    
    23   13   22 1    
    24   13   23 1    
    25   14   24 1    
    26   14   25 1    
    27   14   26 1    
    28   16   27 1    
@<TRIPOS>SUBSTRUCTURE
     1 PHENYL      3 PERM              0 ****  ****    0 ROOT 
@<TRIPOS>NORMAL
@<TRIPOS>FF_PBC
FORCE_FIELD_SETUP_FEATURE Force Field Setup information
v1.0  0 0.000000 0.000000 0.000000 0.000000 0.000000 0.000000 NONE 0 0 0 0 1 0 0 0 0 0 0 0 0
