#	Name:			PISM00923
#	Creating user name:	baoopengkun
#	Creation time:		Fri Dec 14 10:31:16 2018

#	Modifying user name:	baoopengkun
#	Modification time:	Fri Dec 14 11:09:07 2018

@<TRIPOS>MOLECULE
PISM00923
   41    44     1     1     0
SMALL
GAST_HUCK


@<TRIPOS>ATOM
      1 C1         18.7667    7.1595  -19.6393 C.ar      1 <1>        -0.0146 
      2 C2         18.1534    5.9330  -19.9321 C.ar      1 <1>         0.0715 
      3 C3         18.9075    4.8787  -20.4777 C.ar      1 <1>        -0.0299 
      4 C4         20.2666    5.0303  -20.7827 C.ar      1 <1>        -0.0474 
      5 C5         20.8546    6.2601  -20.4925 C.ar      1 <1>         0.0609 
      6 C6         20.1226    7.2961  -19.9323 C.ar      1 <1>         0.0637 
      7 C7         21.0946    8.4373  -19.7656 C.2       1 <1>         0.2418 
      8 N8         22.3098    8.0651  -20.2131 N.am      1 <1>        -0.1418 
      9 C9         22.2555    6.7951  -20.6572 C.2       1 <1>         0.2355 
     10 O10        20.7953    9.5221  -19.2969 O.2       1 <1>        -0.3668 
     11 O11        23.1839    6.1582  -21.1242 O.2       1 <1>        -0.3726 
     12 C12        23.5050    8.8886  -20.1754 C.3       1 <1>         0.2214 
     13 O13        23.9389    8.9995  -18.8052 O.3       1 <1>        -0.2348 
     14 C14        23.8278   10.2883  -18.5070 C.2       1 <1>         0.2491 
     15 C15        23.3608   11.1455  -19.5911 C.2       1 <1>         0.0288 
     16 C16        23.1802   10.2998  -20.6037 C.2       1 <1>        -0.0059 
     17 C17        23.1479   12.6342  -19.5717 C.3       1 <1>        -0.0323 
     18 O18        24.1086   10.7201  -17.4020 O.2       1 <1>        -0.3691 
     19 N19        16.8314    5.7802  -19.6706 N.pl3     1 <1>        -0.2353 
     20 C20        16.0107    5.2557  -20.5434 C.2       1 <1>         0.2309 
     21 O21        16.3943    4.9074  -21.6482 O.2       1 <1>        -0.3661 
     22 C22        14.5345    5.0682  -20.2489 C.ar      1 <1>         0.0558 
     23 C23        14.0620    4.8126  -18.9552 C.ar      1 <1>        -0.0413 
     24 C24        12.6894    4.7079  -18.7096 C.ar      1 <1>        -0.0560 
     25 C25        11.7784    4.8121  -19.7639 C.ar      1 <1>        -0.0574 
     26 C26        12.2446    5.0189  -21.0647 C.ar      1 <1>        -0.0560 
     27 C27        13.6163    5.1452  -21.3031 C.ar      1 <1>        -0.0413 
     28 H1         18.2124    7.9833  -19.2030 H         1 <1>         0.0598 
     29 H2         18.4383    3.9179  -20.6632 H         1 <1>         0.0574 
     30 H3         20.8467    4.2265  -21.2245 H         1 <1>         0.0651 
     31 H4         24.3174    8.4707  -20.7933 H         1 <1>         0.1152 
     32 H5         22.8371   10.5801  -21.5986 H         1 <1>         0.0702 
     33 H6         23.5019   13.0821  -20.5123 H         1 <1>         0.0347 
     34 H7         23.6989   13.0848  -18.7326 H         1 <1>         0.0347 
     35 H8         22.0752   12.8463  -19.4513 H         1 <1>         0.0347 
     36 H9         16.4664    6.1304  -18.7750 H         1 <1>         0.2117 
     37 H10        14.7509    4.6805  -18.1282 H         1 <1>         0.0671 
     38 H11        12.3294    4.5420  -17.6985 H         1 <1>         0.0629 
     39 H12        10.7124    4.7309  -19.5735 H         1 <1>         0.0654 
     40 H13        11.5411    5.0827  -21.8896 H         1 <1>         0.0629 
     41 H14        13.9664    5.3085  -22.3178 H         1 <1>         0.0671 
@<TRIPOS>BOND
     1    2    1 ar   
     2    2    3 ar   
     3    3    4 ar   
     4    4    5 ar   
     5    6    5 ar   
     6    1    6 ar   
     7    6    7 1    
     8    7    8 am   
     9    9    8 am   
    10    5    9 1    
    11    7   10 2    
    12    9   11 2    
    13    8   12 1    
    14   12   13 1    
    15   13   14 1    
    16   15   14 1    
    17   16   15 2    
    18   12   16 1    
    19   15   17 1    
    20   14   18 2    
    21    2   19 1    
    22   19   20 1    
    23   20   21 2    
    24   20   22 1    
    25   22   23 ar   
    26   23   24 ar   
    27   24   25 ar   
    28   25   26 ar   
    29   26   27 ar   
    30   22   27 ar   
    31    1   28 1    
    32    3   29 1    
    33    4   30 1    
    34   12   31 1    
    35   16   32 1    
    36   17   33 1    
    37   17   34 1    
    38   17   35 1    
    39   19   36 1    
    40   23   37 1    
    41   24   38 1    
    42   25   39 1    
    43   26   40 1    
    44   27   41 1    
@<TRIPOS>SUBSTRUCTURE
     1 ****        2 TEMP              0 ****  ****    0 ROOT 
@<TRIPOS>NORMAL
@<TRIPOS>FF_PBC
FORCE_FIELD_SETUP_FEATURE Force Field Setup information
v1.0  0 0.000000 0.000000 0.000000 0.000000 0.000000 0.000000 NONE 0 0 0 0 1 0 0 0 0 0 0 0 0
