#	Name:			PISM00081
#	Creating user name:	baoopengkun
#	Creation time:		Thu Dec 27 12:30:22 2018

#	Modifying user name:	baoopengkun
#	Modification time:	Thu Dec 27 12:32:13 2018

@<TRIPOS>MOLECULE
PISM00081
   50    51     1     1     0
SMALL
GAST_HUCK


@<TRIPOS>ATOM
      1 C1          7.0660   -2.6692  -23.5136 C.3       1 <1>        -0.0632 
      2 C2          6.0939   -1.4631  -23.4358 C.3       1 <1>        -0.0398 
      3 C3          4.7745   -1.8443  -22.7122 C.3       1 <1>         0.0227 
      4 C4          3.8049   -0.6888  -22.6454 C.2       1 <1>         0.1160 
      5 O5          4.1158    0.4295  -23.0217 O.2       1 <1>        -0.3886 
      6 C6          2.4304   -0.9544  -22.0904 C.3       1 <1>         0.0517 
      7 C7          2.5583   -1.3588  -20.6167 C.ar      1 <1>        -0.0348 
      8 C8          2.5138   -2.7048  -20.2362 C.ar      1 <1>        -0.0688 
      9 C9          2.6388   -3.0598  -18.8899 C.ar      1 <1>        -0.0636 
     10 C10         2.8044   -2.0714  -17.9164 C.ar      1 <1>         0.0555 
     11 C11         2.8160   -0.7231  -18.2878 C.ar      1 <1>         0.0741 
     12 C12         2.7228   -0.3729  -19.6377 C.ar      1 <1>        -0.0344 
     13 Cl13        3.0037   -2.5263  -16.2355 Cl        1 <1>        -0.0854 
     14 N14         2.9171    0.2462  -17.3485 N.pl3     1 <1>        -0.2350 
     15 C15         1.9152    0.5294  -16.5532 C.2       1 <1>         0.1866 
     16 S16         0.4478   -0.3475  -16.7483 S.2       1 <1>        -0.2688 
     17 N17         2.0367    1.4968  -15.6071 N.am      1 <1>        -0.1935 
     18 C18         1.0946    1.8890  -14.7152 C.2       1 <1>         0.2321 
     19 O19        -0.0069    1.3733  -14.6426 O.2       1 <1>        -0.3764 
     20 C20         1.3806    3.0154  -13.7409 C.ar      1 <1>         0.0517 
     21 C21         1.0039    2.9152  -12.3937 C.ar      1 <1>        -0.0315 
     22 C22         1.2599    3.9828  -11.5245 C.ar      1 <1>        -0.0535 
     23 C23         1.9227    5.1312  -11.9688 C.ar      1 <1>        -0.0480 
     24 C24         2.3100    5.2195  -13.3094 C.ar      1 <1>        -0.0614 
     25 C25         2.0224    4.1750  -14.1918 C.ar      1 <1>        -0.0542 
     26 C26         0.3225    1.6472  -11.8565 C.3       1 <1>        -0.0290 
     27 C27         2.2095    6.2676  -10.9796 C.3       1 <1>        -0.0305 
     28 H1          7.9953   -2.3734  -24.0257 H         1 <1>         0.0231 
     29 H2          6.6068   -3.4981  -24.0745 H         1 <1>         0.0231 
     30 H3          7.3209   -3.0240  -22.5028 H         1 <1>         0.0231 
     31 H4          5.8623   -1.1171  -24.4572 H         1 <1>         0.0287 
     32 H5          6.5829   -0.6360  -22.8939 H         1 <1>         0.0287 
     33 H6          5.0063   -2.1689  -21.6859 H         1 <1>         0.0495 
     34 H7          4.2945   -2.6801  -23.2445 H         1 <1>         0.0495 
     35 H8          1.9394   -1.7423  -22.6808 H         1 <1>         0.0649 
     36 H9          1.8138   -0.0457  -22.1707 H         1 <1>         0.0649 
     37 H10         2.3847   -3.4820  -20.9828 H         1 <1>         0.0466 
     38 H11         2.6081   -4.1044  -18.5974 H         1 <1>         0.0577 
     39 H12         2.7758    0.6730  -19.9214 H         1 <1>         0.0475 
     40 H13         3.8042    0.7644  -17.2841 H         1 <1>         0.2188 
     41 H14         2.9134    1.9642  -15.5361 H         1 <1>         0.2367 
     42 H15         0.9435    3.9267  -10.4880 H         1 <1>         0.0507 
     43 H16         2.8314    6.0990  -13.6738 H         1 <1>         0.0514 
     44 H17         2.2944    4.2808  -15.2371 H         1 <1>         0.0635 
     45 H18         0.8211    0.7483  -12.2495 H         1 <1>         0.0404 
     46 H19        -0.7322    1.6440  -12.1699 H         1 <1>         0.0404 
     47 H20         0.3604    1.5981  -10.7580 H         1 <1>         0.0404 
     48 H21         2.7895    5.8740  -10.1313 H         1 <1>         0.0400 
     49 H22         1.2557    6.6703  -10.6069 H         1 <1>         0.0400 
     50 H23         2.7798    7.0858  -11.4444 H         1 <1>         0.0400 
@<TRIPOS>BOND
     1    2    1 1    
     2    2    3 1    
     3    3    4 1    
     4    4    5 2    
     5    4    6 1    
     6    6    7 1    
     7    7    8 ar   
     8    8    9 ar   
     9    9   10 ar   
    10   10   11 ar   
    11   11   12 ar   
    12    7   12 ar   
    13   10   13 1    
    14   11   14 1    
    15   14   15 1    
    16   15   16 2    
    17   15   17 am   
    18   17   18 am   
    19   18   19 2    
    20   18   20 1    
    21   20   21 ar   
    22   21   22 ar   
    23   22   23 ar   
    24   23   24 ar   
    25   24   25 ar   
    26   20   25 ar   
    27   21   26 1    
    28   23   27 1    
    29    1   28 1    
    30    1   29 1    
    31    1   30 1    
    32    2   31 1    
    33    2   32 1    
    34    3   33 1    
    35    3   34 1    
    36    6   35 1    
    37    6   36 1    
    38    8   37 1    
    39    9   38 1    
    40   12   39 1    
    41   14   40 1    
    42   17   41 1    
    43   22   42 1    
    44   24   43 1    
    45   25   44 1    
    46   26   45 1    
    47   26   46 1    
    48   26   47 1    
    49   27   48 1    
    50   27   49 1    
    51   27   50 1    
@<TRIPOS>SUBSTRUCTURE
     1 ****        2 TEMP              0 ****  ****    0 ROOT 
@<TRIPOS>NORMAL
@<TRIPOS>FF_PBC
FORCE_FIELD_SETUP_FEATURE Force Field Setup information
v1.0  0 0.000000 0.000000 0.000000 0.000000 0.000000 0.000000 NONE 0 0 0 0 1 0 0 0 0 0 0 0 0
