#	Name:			PISM01103
#	Creating user name:	Qinrunwen
#	Creation time:		Mon Apr 01 14:59:35 2019

#	Modifying user name:	Qinrunwen
#	Modification time:	Mon Apr 01 15:02:34 2019

@<TRIPOS>MOLECULE
PISM01103
   47    50     1     1     0
SMALL
GAST_HUCK


@<TRIPOS>ATOM
      1 C1         -3.6162   45.0218    2.8872 C.ar      1 <1>         0.1522 
      2 C2         -2.3010   45.4485    3.1289 C.ar      1 <1>         0.1237 
      3 C3         -1.2290   44.7046    2.6158 C.ar      1 <1>        -0.0348 
      4 C4         -1.4598   43.5975    1.7940 C.ar      1 <1>        -0.0617 
      5 C5         -2.7689   43.2001    1.5112 C.ar      1 <1>         0.0257 
      6 C6         -3.8347   43.8747    2.1132 C.ar      1 <1>        -0.0261 
      7 O7         -2.0859   46.6178    3.8743 O.3       1 <1>        -0.3208 
      8 C8         -0.8246   47.3056    3.8860 C.3       1 <1>         0.0587 
      9 N9         -4.6809   45.7065    3.3810 N.pl3     1 <1>         0.0305 
     10 O10        -5.9660   45.5114    2.8459 O.3       1 <1>        -0.2416 
     11 O11        -4.5551   46.4941    4.2925 O.2       1 <1>        -0.1291 
     12 C12        -3.0321   42.0634    0.5484 C.2       1 <1>         0.1953 
     13 N13        -4.1485   41.4657    0.4616 N.2       1 <1>        -0.2847 
     14 C14        -4.2063   40.4809   -0.5759 C.2       1 <1>         0.0934 
     15 C15        -2.8276   40.6649   -1.0235 C.2       1 <1>         0.2917 
     16 O16        -2.1306   41.5889   -0.3397 O.3       1 <1>        -0.1854 
     17 C17        -5.2287   39.7128   -0.9560 C.2       1 <1>        -0.0361 
     18 O18        -2.3395   40.0364   -1.9486 O.2       1 <1>        -0.3548 
     19 C19        -5.0989   38.8253   -2.1715 C.ar      1 <1>         0.0170 
     20 C20        -5.4481   39.4037   -3.3941 C.ar      1 <1>         0.1080 
     21 O21        -5.9055   40.7222   -3.4316 O.3       1 <1>        -0.3139 
     22 C22        -4.9506   41.6805   -3.9159 C.3       1 <1>         0.0623 
     23 C23        -5.3493   38.6631   -4.5726 C.ar      1 <1>        -0.0226 
     24 C24        -4.9125   37.3374   -4.5255 C.ar      1 <1>        -0.0542 
     25 C25        -4.5723   36.7505   -3.3003 C.ar      1 <1>        -0.0219 
     26 C26        -4.6605   37.4956   -2.1151 C.ar      1 <1>        -0.0167 
     27 C27        -4.1440   35.4174   -3.2564 C.ar      1 <1>        -0.0572 
     28 C28        -3.7912   34.8276   -2.0398 C.ar      1 <1>        -0.0638 
     29 C29        -3.8754   35.5692   -0.8601 C.ar      1 <1>        -0.0642 
     30 C30        -4.3117   36.8962   -0.8987 C.ar      1 <1>        -0.0579 
     31 H1         -0.2030   44.9690    2.8401 H         1 <1>         0.0528 
     32 H2         -0.6213   43.0483    1.3763 H         1 <1>         0.0547 
     33 H3         -4.8430   43.5018    1.9658 H         1 <1>         0.0527 
     34 H4         -0.0494   46.7222    4.4053 H         1 <1>         0.0577 
     35 H5         -0.9696   48.2485    4.4340 H         1 <1>         0.0577 
     36 H6         -0.4972   47.5431    2.8621 H         1 <1>         0.0577 
     37 H7         -6.2812   46.3127    2.4401 H         1 <1>         0.2517 
     38 H8         -6.1682   39.7517   -0.4089 H         1 <1>         0.0635 
     39 H9         -4.6881   41.4945   -4.9685 H         1 <1>         0.0584 
     40 H10        -4.0350   41.6623   -3.3069 H         1 <1>         0.0584 
     41 H11        -5.4013   42.6806   -3.8383 H         1 <1>         0.0584 
     42 H12        -5.6179   39.1189   -5.5188 H         1 <1>         0.0591 
     43 H13        -4.8463   36.7715   -5.4499 H         1 <1>         0.0635 
     44 H14        -4.0802   34.8277   -4.1663 H         1 <1>         0.0622 
     45 H15        -3.4504   33.7963   -2.0130 H         1 <1>         0.0593 
     46 H16        -3.6013   35.1115    0.0859 H         1 <1>         0.0611 
     47 H17        -4.3763   37.4500    0.0317 H         1 <1>         0.0599 
@<TRIPOS>BOND
     1    2    1 ar   
     2    2    3 ar   
     3    3    4 ar   
     4    4    5 ar   
     5    5    6 ar   
     6    1    6 ar   
     7    2    7 1    
     8    7    8 1    
     9    1    9 1    
    10    9   10 1    
    11    9   11 2    
    12    5   12 1    
    13   12   13 2    
    14   13   14 1    
    15   14   15 1    
    16   15   16 1    
    17   12   16 1    
    18   14   17 2    
    19   15   18 2    
    20   17   19 1    
    21   19   20 ar   
    22   20   21 1    
    23   21   22 1    
    24   20   23 ar   
    25   23   24 ar   
    26   24   25 ar   
    27   25   26 ar   
    28   19   26 ar   
    29   25   27 ar   
    30   27   28 ar   
    31   28   29 ar   
    32   29   30 ar   
    33   26   30 ar   
    34    3   31 1    
    35    4   32 1    
    36    6   33 1    
    37    8   34 1    
    38    8   35 1    
    39    8   36 1    
    40   10   37 1    
    41   17   38 1    
    42   22   39 1    
    43   22   40 1    
    44   22   41 1    
    45   23   42 1    
    46   24   43 1    
    47   27   44 1    
    48   28   45 1    
    49   29   46 1    
    50   30   47 1    
@<TRIPOS>SUBSTRUCTURE
     1 ****        2 TEMP              0 ****  ****    0 ROOT 
@<TRIPOS>NORMAL
@<TRIPOS>FF_PBC
FORCE_FIELD_SETUP_FEATURE Force Field Setup information
v1.0  0 0.000000 0.000000 0.000000 0.000000 0.000000 0.000000 NONE 0 0 0 0 1 0 0 0 0 0 0 0 0
