#	Name:			PISM00403
#	Creating user name:	baoopengkun
#	Creation time:		Sun Mar 31 17:28:59 2019

#	Modifying user name:	baoopengkun
#	Modification time:	Sun Mar 31 17:35:41 2019

@<TRIPOS>MOLECULE
PISM00403
   41    41     1     1     0
SMALL
GAST_HUCK


@<TRIPOS>ATOM
      1 C1         -2.7284    5.1182   -3.9324 C.3       1 <1>        -0.0361 
      2 C2         -1.2026    5.4072   -4.0352 C.3       1 <1>         0.0156 
      3 C3         -0.9285    6.3823   -5.1501 C.2       1 <1>         0.1033 
      4 C4         -1.3859    5.9836   -6.5250 C.3       1 <1>         0.0131 
      5 C5         -2.9010    5.6461   -6.5196 C.3       1 <1>        -0.0451 
      6 C6         -3.2285    4.6465   -5.3572 C.3       1 <1>         0.0283 
      7 C7         -3.4200    6.4192   -3.4057 C.3       1 <1>        -0.0684 
      8 C8         -2.9473    4.0118   -2.8450 C.3       1 <1>        -0.0684 
      9 C9         -4.6966    4.2656   -5.4179 C.2       1 <1>        -0.0715 
     10 C10        -3.7977    6.9183   -6.6357 C.3       1 <1>        -0.0710 
     11 C11        -5.2206    3.6220   -6.4696 C.2       1 <1>        -0.0019 
     12 C12        -6.6447    3.2395   -6.5376 C.2       1 <1>         0.0411 
     13 C13        -7.1949    2.3764   -5.4204 C.3       1 <1>        -0.0093 
     14 C14        -7.4264    3.6388   -7.5538 C.2       1 <1>         0.0801 
     15 C15        -7.0258    4.5065   -8.6822 C.2       1 <1>         0.2880 
     16 O16        -5.8835    4.9254   -8.7694 O.2       1 <1>        -0.3368 
     17 O17        -7.9304    4.8427   -9.6089 O.3       1 <1>        -0.2892 
     18 O18        -2.5002    3.4677   -5.7562 O.3       1 <1>        -0.4540 
     19 O19        -0.3583    7.4426   -4.9489 O.2       1 <1>        -0.3917 
     20 H1         -0.6455    4.4843   -4.2548 H         1 <1>         0.0487 
     21 H2         -0.8204    5.8154   -3.0878 H         1 <1>         0.0487 
     22 H3         -0.7972    5.0954   -6.8062 H         1 <1>         0.0484 
     23 H4         -1.1702    6.7784   -7.2556 H         1 <1>         0.0484 
     24 H5         -3.0800    5.1098   -7.4687 H         1 <1>         0.0181 
     25 H6         -3.0488    7.3196   -3.9060 H         1 <1>         0.0224 
     26 H7         -3.2041    6.5800   -2.3383 H         1 <1>         0.0224 
     27 H8         -4.5115    6.3824   -3.5190 H         1 <1>         0.0224 
     28 H9         -4.0073    3.7305   -2.7775 H         1 <1>         0.0224 
     29 H10        -2.6328    4.3647   -1.8508 H         1 <1>         0.0224 
     30 H11        -2.3609    3.1050   -3.0418 H         1 <1>         0.0224 
     31 H12        -5.3724    4.5118   -4.6009 H         1 <1>         0.0563 
     32 H13        -3.8029    7.2794   -7.6769 H         1 <1>         0.0222 
     33 H14        -3.4373    7.7594   -6.0322 H         1 <1>         0.0222 
     34 H15        -4.8390    6.7006   -6.3562 H         1 <1>         0.0222 
     35 H16        -4.5938    3.3486   -7.3189 H         1 <1>         0.1247 
     36 H17        -7.9129    2.9571   -4.8218 H         1 <1>         0.0431 
     37 H18        -6.3831    2.0323   -4.7571 H         1 <1>         0.0431 
     38 H19        -7.7030    1.4861   -5.8254 H         1 <1>         0.0431 
     39 H20        -8.4665    3.3205   -7.5752 H         1 <1>         0.1129 
     40 H21        -7.5688    5.4217  -10.2729 H         1 <1>         0.2521 
     41 H22        -2.6955    2.6897   -5.2484 H         1 <1>         0.1854 
@<TRIPOS>BOND
     1    2    1 1    
     2    2    3 1    
     3    3    4 1    
     4    4    5 1    
     5    5    6 1    
     6    1    6 1    
     7    1    7 1    
     8    1    8 1    
     9    6    9 1    
    10    5   10 1    
    11    9   11 2    
    12   11   12 1    
    13   12   13 1    
    14   12   14 2    
    15   14   15 1    
    16   15   16 2    
    17   15   17 1    
    18    6   18 1    
    19    3   19 2    
    20    2   20 1    
    21    2   21 1    
    22    4   22 1    
    23    4   23 1    
    24    5   24 1    
    25    7   25 1    
    26    7   26 1    
    27    7   27 1    
    28    8   28 1    
    29    8   29 1    
    30    8   30 1    
    31    9   31 1    
    32   10   32 1    
    33   10   33 1    
    34   10   34 1    
    35   11   35 1    
    36   13   36 1    
    37   13   37 1    
    38   13   38 1    
    39   14   39 1    
    40   17   40 1    
    41   18   41 1    
@<TRIPOS>SUBSTRUCTURE
     1 ****        2 TEMP              0 ****  ****    0 ROOT 
@<TRIPOS>NORMAL
@<TRIPOS>FF_PBC
FORCE_FIELD_SETUP_FEATURE Force Field Setup information
v1.0  0 0.000000 0.000000 0.000000 0.000000 0.000000 0.000000 NONE 0 0 0 0 1 0 0 0 0 0 0 0 0
