#	Name:			PISM00210
#	Creating user name:	14062
#	Creation time:		Mon Apr 01 20:10:24 2019

#	Modifying user name:	14062
#	Modification time:	Mon Apr 01 20:39:18 2019

@<TRIPOS>MOLECULE
PISM00210
   41    43     1     2     0
SMALL
GAST_HUCK


@<TRIPOS>ATOM
      1 N1          1.4218    3.4464    6.6168 N.pl3     1 <1>        -0.2884 
      2 C2          0.2097    2.9155    6.8714 C.ar      1 <1>         0.0606 
      3 C3         -0.0697    1.9336    5.9409 C.ar      1 <1>        -0.0191 
      4 C4         -1.2817    1.2435    5.9326 C.ar      1 <1>        -0.0746 
      5 C5         -2.1964    1.5637    6.9452 C.ar      1 <1>        -0.0792 
      6 C6         -1.8958    2.5300    7.9187 C.ar      1 <1>        -0.0767 
      7 C7          1.1923    1.9052    5.1149 C.2       1 <1>        -0.0231 
      8 C8          2.0015    2.8608    5.6005 C.2       1 <1>         0.0195 
      9 C9         -0.6858    3.2349    7.8915 C.ar      1 <1>        -0.0442 
     10 C10         1.4837    0.9688    3.9700 C.3       1 <1>         0.0762 
     11 C11         1.1941   -0.4362    4.4361 C.2       1 <1>         0.2395 
     12 O12         0.3492   -1.1443    3.9104 O.2       1 <1>        -0.3687 
     13 O13         1.9266   -0.8612    5.4657 O.3       1 <1>        -0.2917 
     14 C14         0.6802    1.3514    2.6968 C.3       1 <1>        -0.0275 
     15 C15         0.7029    4.6249    0.4574 C.3       1 <1>        -0.0502 
     16 C16         0.3993    3.1541    0.8393 C.3       1 <1>        -0.0408 
     17 C17        -0.3508    5.4464    1.2486 C.3       1 <1>        -0.0528 
     18 C18        -1.5352    4.4686    1.5099 C.3       1 <1>        -0.0528 
     19 C19        -1.1479    3.1666    0.7674 C.3       1 <1>        -0.0502 
     20 H1          1.8420    4.2150    7.1609 H         1 <1>         0.2219 
     21 H2         -1.5058    0.4974    5.1785 H         1 <1>         0.0540 
     22 C22         0.9736    2.8120    2.2494 C.3       1 <1>        -0.0467 
     23 H3         -3.1548    1.0546    6.9773 H         1 <1>         0.0510 
     24 H4         -2.6116    2.7361    8.7085 H         1 <1>         0.0530 
     25 H5          2.9902    3.1046    5.2085 H         1 <1>         0.0804 
     26 H6         -0.4469    3.9929    8.6292 H         1 <1>         0.0541 
     27 H7          2.5603    1.0058    3.7362 H         1 <1>         0.0635 
     28 H8          1.6881   -1.7487    5.7103 H         1 <1>         0.2540 
     29 H9         -0.3938    1.2270    2.9089 H         1 <1>         0.0307 
     30 H10         0.9552    0.6547    1.8866 H         1 <1>         0.0307 
     31 H11         0.5258    4.7560   -0.6249 H         1 <1>         0.0268 
     32 H12         1.7412    4.9255    0.6713 H         1 <1>         0.0268 
     33 H13         0.8294    2.4580    0.0984 H         1 <1>         0.0301 
     34 H14        -0.6670    6.3348    0.6745 H         1 <1>         0.0265 
     35 H15         0.0784    5.7934    2.2054 H         1 <1>         0.0265 
     36 H16        -2.5022    4.8699    1.1621 H         1 <1>         0.0265 
     37 H17        -1.6316    4.2539    2.5877 H         1 <1>         0.0265 
     38 H18        -1.4567    3.2588   -0.2874 H         1 <1>         0.0268 
     39 H19        -1.6312    2.2677    1.1738 H         1 <1>         0.0268 
     40 H20         2.0665    2.9508    2.2030 H         1 <1>         0.0271 
     41 H21         0.5875    3.4987    3.0168 H         1 <1>         0.0271 
@<TRIPOS>BOND
     1    8    1 1    
     2    2    1 1    
     3    3    2 ar   
     4    7    3 1    
     5    3    4 ar   
     6    4    5 ar   
     7    5    6 ar   
     8    7    8 2    
     9    9    6 ar   
    10    2    9 ar   
    11    7   10 1    
    12   10   11 1    
    13   11   12 2    
    14   11   13 1    
    15   10   14 1    
    16   16   15 1    
    17   15   17 1    
    18   17   18 1    
    19   22   16 1    
    20   18   19 1    
    21   16   19 1    
    22    1   20 1    
    23   14   22 1    
    24    4   21 1    
    25    5   23 1    
    26    6   24 1    
    27    8   25 1    
    28    9   26 1    
    29   10   27 1    
    30   13   28 1    
    31   14   29 1    
    32   14   30 1    
    33   15   31 1    
    34   15   32 1    
    35   16   33 1    
    36   17   34 1    
    37   17   35 1    
    38   18   36 1    
    39   18   37 1    
    40   19   38 1    
    41   19   39 1    
    42   22   40 1    
    43   22   41 1    
@<TRIPOS>SUBSTRUCTURE
     1 ****        7 TEMP              0 ****  ****    0 ROOT 
@<TRIPOS>NORMAL
@<TRIPOS>FF_PBC
FORCE_FIELD_SETUP_FEATURE Force Field Setup information
v1.0  0 0.000000 0.000000 0.000000 0.000000 0.000000 0.000000 NONE 0 0 0 0 1 0 0 0 0 0 0 0 0
@<TRIPOS>RENDERING_ATTRS
ANTIALIASED_LINES 
1,2,3,4,5,6,7,8,9,10,11,12,13,14,16,17,18,19,22
