#	Name:			PISM00227
#	Creating user name:	14062
#	Creation time:		Fri Apr 05 23:42:06 2019

#	Modifying user name:	14062
#	Modification time:	Fri Apr 05 23:50:12 2019

@<TRIPOS>MOLECULE
PISM00227
   24    24     1     2     0
SMALL
GAST_HUCK


@<TRIPOS>ATOM
      1 H1         -3.0038    0.7202   -0.7951 H         1 <1>         0.0901 
      2 C2         -4.9954    1.2375   -1.4753 C.3       1 <1>         0.0280 
      3 H3         -3.2850    1.4001    2.0082 H         1 <1>         0.2540 
      4 H2         -4.6596    2.0142   -2.1801 H         1 <1>         0.0478 
      5 N5         -3.5496   -0.3934    1.5148 N.3       1 <1>        -0.2115 
      6 C6         -5.2005   -0.0908   -2.2173 C.ar      1 <1>        -0.0381 
      7 C7         -6.1487   -1.0121   -1.7581 C.ar      1 <1>        -0.0601 
      8 C8         -6.3421   -2.2230   -2.4289 C.ar      1 <1>        -0.0686 
      9 C9         -5.5832   -2.5223   -3.5633 C.ar      1 <1>        -0.0687 
     10 C10        -4.6345   -1.6061   -4.0266 C.ar      1 <1>        -0.0686 
     11 C11        -3.9569    1.0380   -0.3443 C.3       1 <1>         0.1883 
     12 C12        -3.7078    2.3341    0.3995 C.2       1 <1>         0.2647 
     13 O13        -3.3268    2.2902    1.6785 O.3       1 <1>        -0.2906 
     14 O14        -3.8473    3.4138   -0.1494 O.2       1 <1>        -0.3674 
     15 O15        -4.4326    0.0076    0.5460 O.3       1 <1>        -0.2747 
     16 C16        -4.4425   -0.3956   -3.3538 C.ar      1 <1>        -0.0601 
     17 H4         -5.9470    1.5731   -1.0350 H         1 <1>         0.0478 
     18 H5         -2.8063   -1.0522    1.0828 H         1 <1>         0.1502 
     19 H6         -4.0907   -0.9418    2.2762 H         1 <1>         0.1502 
     20 H7         -6.7394   -0.7917   -0.8740 H         1 <1>         0.0557 
     21 H8         -7.0821   -2.9315   -2.0680 H         1 <1>         0.0599 
     22 H9         -5.7305   -3.4642   -4.0830 H         1 <1>         0.0559 
     23 H10        -4.0472   -1.8368   -4.9099 H         1 <1>         0.0599 
     24 H11        -3.6992    0.3050   -3.7206 H         1 <1>         0.0557 
@<TRIPOS>BOND
     1   11    1 1    
     2   11    2 1    
     3   13    3 1    
     4    2    4 1    
     5   15    5 1    
     6    2    6 1    
     7    6    7 ar   
     8    7    8 ar   
     9    8    9 ar   
    10    9   10 ar   
    11   10   16 ar   
    12    6   16 ar   
    13   11   12 1    
    14   12   13 1    
    15   12   14 2    
    16   11   15 1    
    17    2   17 1    
    18    5   18 1    
    19    5   19 1    
    20    7   20 1    
    21    8   21 1    
    22    9   22 1    
    23   10   23 1    
    24   16   24 1    
@<TRIPOS>SUBSTRUCTURE
     1 ****       11 TEMP              0 ****  ****    0 ROOT 
@<TRIPOS>NORMAL
@<TRIPOS>FF_PBC
FORCE_FIELD_SETUP_FEATURE Force Field Setup information
v1.0  0 0.000000 0.000000 0.000000 0.000000 0.000000 0.000000 NONE 0 0 0 0 1 0 0 0 0 0 0 0 0
@<TRIPOS>RENDERING_ATTRS
ANTIALIASED_LINES 
11,12,13,14,15
