#	Name:			PISM00837
#	Creating user name:	baoopengkun
#	Creation time:		Thu Dec 13 14:40:19 2018

#	Modifying user name:	baoopengkun
#	Modification time:	Thu Dec 13 14:42:37 2018

@<TRIPOS>MOLECULE
PISM00837
   24    25     1     1     0
SMALL
GAST_HUCK


@<TRIPOS>ATOM
      1 C1         -6.5492   21.2192   -7.8434 C.ar      1 <1>        -0.0320 
      2 C2         -6.1122   22.3846   -7.2070 C.ar      1 <1>        -0.0567 
      3 C3         -6.6079   22.7184   -5.9434 C.ar      1 <1>         0.0285 
      4 C4         -7.5417   21.8880   -5.3168 C.ar      1 <1>        -0.0567 
      5 C5         -7.9781   20.7223   -5.9535 C.ar      1 <1>        -0.0320 
      6 C6         -7.4776   20.3854   -7.2140 C.ar      1 <1>         0.0984 
      7 Cl7        -6.0591   24.1778   -5.1449 Cl        1 <1>        -0.0810 
      8 O8         -7.9051   19.2185   -7.8432 O.3       1 <1>        -0.2706 
      9 C9         -7.0472   18.1012   -7.5800 C.3       1 <1>         0.2358 
     10 C10        -7.5260   16.9409   -8.4168 C.2       1 <1>        -0.0019 
     11 C11        -6.5995   16.5939   -9.3080 C.2       1 <1>         0.0292 
     12 C12        -5.5059   17.5219   -9.0422 C.2       1 <1>         0.2494 
     13 O13        -5.7123   18.3786   -8.0503 O.3       1 <1>        -0.2313 
     14 C14        -6.6681   15.5060  -10.3446 C.3       1 <1>        -0.0323 
     15 O15        -4.4663   17.5127   -9.6786 O.2       1 <1>        -0.3691 
     16 H1         -6.1701   20.9575   -8.8260 H         1 <1>         0.0543 
     17 H2         -5.3883   23.0312   -7.6925 H         1 <1>         0.0595 
     18 H3         -7.9265   22.1502   -4.3365 H         1 <1>         0.0595 
     19 H4         -8.7053   20.0762   -5.4731 H         1 <1>         0.0543 
     20 H5         -7.0323   17.8389   -6.5090 H         1 <1>         0.1199 
     21 H6         -8.4987   16.4628   -8.3086 H         1 <1>         0.0705 
     22 H7         -5.8039   15.5698  -11.0229 H         1 <1>         0.0347 
     23 H8         -7.5914   15.6084  -10.9341 H         1 <1>         0.0347 
     24 H9         -6.6624   14.5236   -9.8496 H         1 <1>         0.0347 
@<TRIPOS>BOND
     1    2    1 ar   
     2    2    3 ar   
     3    3    4 ar   
     4    4    5 ar   
     5    5    6 ar   
     6    1    6 ar   
     7    3    7 1    
     8    6    8 1    
     9    8    9 1    
    10    9   10 1    
    11   10   11 2    
    12   11   12 1    
    13   12   13 1    
    14    9   13 1    
    15   11   14 1    
    16   12   15 2    
    17    1   16 1    
    18    2   17 1    
    19    4   18 1    
    20    5   19 1    
    21    9   20 1    
    22   10   21 1    
    23   14   22 1    
    24   14   23 1    
    25   14   24 1    
@<TRIPOS>SUBSTRUCTURE
     1 ****        2 TEMP              0 ****  ****    0 ROOT 
@<TRIPOS>NORMAL
@<TRIPOS>FF_PBC
FORCE_FIELD_SETUP_FEATURE Force Field Setup information
v1.0  0 0.000000 0.000000 0.000000 0.000000 0.000000 0.000000 NONE 0 0 0 0 1 0 0 0 0 0 0 0 0
