#	Name:			PISM00841
#	Creating user name:	baoopengkun
#	Creation time:		Thu Dec 13 14:40:19 2018

#	Modifying user name:	baoopengkun
#	Modification time:	Thu Dec 13 14:49:17 2018

@<TRIPOS>MOLECULE
PISM00841
   27    28     1     1     0
SMALL
GAST_HUCK


@<TRIPOS>ATOM
      1 C1         -8.1582   22.3533    0.1314 C.ar      1 <1>         0.0020 
      2 C2         -8.5865   22.8016    1.3846 C.ar      1 <1>        -0.0383 
      3 C3         -9.5195   22.0579    2.1173 C.ar      1 <1>         0.0326 
      4 C4        -10.0274   20.8700    1.5797 C.ar      1 <1>        -0.0383 
      5 C5         -9.5994   20.4211    0.3268 C.ar      1 <1>         0.0020 
      6 C6         -8.6577   21.1589   -0.3944 C.ar      1 <1>         0.1361 
      7 C7        -10.0020   22.5132    3.4996 C.3       1 <1>         0.3627 
      8 O8         -8.2187   20.7052   -1.6366 O.3       1 <1>        -0.2451 
      9 C9         -7.0156   19.9303   -1.5525 C.3       1 <1>         0.2442 
     10 C10        -6.5389   19.6428   -2.9549 C.2       1 <1>        -0.0003 
     11 C11        -5.3587   20.2195   -3.1738 C.2       1 <1>         0.0293 
     12 C12        -5.0612   20.8793   -1.9075 C.2       1 <1>         0.2496 
     13 O13        -5.9677   20.7178   -0.9523 O.3       1 <1>        -0.2298 
     14 C14        -4.5315   20.2067   -4.4301 C.3       1 <1>        -0.0323 
     15 O15        -4.0478   21.5321   -1.7283 O.2       1 <1>        -0.3691 
     16 F16        -9.8657   21.4874    4.3821 F         1 <1>        -0.2324 
     17 F17       -11.3152   22.8556    3.4172 F         1 <1>        -0.2324 
     18 F18        -9.2922   23.5813    3.9537 F         1 <1>        -0.2324 
     19 H1         -7.4362   22.9302   -0.4379 H         1 <1>         0.0651 
     20 H2         -8.1891   23.7304    1.7820 H         1 <1>         0.0825 
     21 H3        -10.7585   20.2936    2.1389 H         1 <1>         0.0825 
     22 H4         -9.9953   19.5008   -0.0899 H         1 <1>         0.0651 
     23 H5         -7.1664   18.9956   -0.9868 H         1 <1>         0.1218 
     24 H6         -7.0904   19.0513   -3.6846 H         1 <1>         0.0706 
     25 H7         -3.8315   21.0558   -4.4301 H         1 <1>         0.0347 
     26 H8         -5.1804   20.2811   -5.3156 H         1 <1>         0.0347 
     27 H9         -3.9576   19.2695   -4.4806 H         1 <1>         0.0347 
@<TRIPOS>BOND
     1    2    1 ar   
     2    2    3 ar   
     3    3    4 ar   
     4    4    5 ar   
     5    5    6 ar   
     6    1    6 ar   
     7    3    7 1    
     8    6    8 1    
     9    8    9 1    
    10    9   10 1    
    11   10   11 2    
    12   11   12 1    
    13   12   13 1    
    14    9   13 1    
    15   11   14 1    
    16   12   15 2    
    17    7   16 1    
    18    7   17 1    
    19    7   18 1    
    20    1   19 1    
    21    2   20 1    
    22    4   21 1    
    23    5   22 1    
    24    9   23 1    
    25   10   24 1    
    26   14   25 1    
    27   14   26 1    
    28   14   27 1    
@<TRIPOS>SUBSTRUCTURE
     1 ****        2 TEMP              0 ****  ****    0 ROOT 
@<TRIPOS>NORMAL
@<TRIPOS>FF_PBC
FORCE_FIELD_SETUP_FEATURE Force Field Setup information
v1.0  0 0.000000 0.000000 0.000000 0.000000 0.000000 0.000000 NONE 0 0 0 0 1 0 0 0 0 0 0 0 0
