#	Name:			PISM00810
#	Creating user name:	baoopengkun
#	Creation time:		Wed Jan 09 15:22:09 2019

#	Modifying user name:	baoopengkun
#	Modification time:	Wed Jan 09 15:27:57 2019

@<TRIPOS>MOLECULE
PISM00810
   36    37     1     1     0
SMALL
GAST_HUCK


@<TRIPOS>ATOM
      1 C1          6.8917   -2.2471   -2.7181 C.ar      1 <1>         0.1323 
      2 N2          7.3153   -1.9754   -3.9792 N.pl3     1 <1>         0.1201 
      3 O3          7.6461   -2.9075   -4.6798 O.2       1 <1>        -0.1133 
      4 O4          7.3022   -0.8210   -4.3479 O.2       1 <1>        -0.1133 
      5 C5          6.2184   -3.4469   -2.4530 C.ar      1 <1>        -0.0426 
      6 C6          5.6875   -3.7031   -1.1860 C.ar      1 <1>        -0.0798 
      7 C7          5.8321   -2.7585   -0.1679 C.ar      1 <1>        -0.0818 
      8 C8          6.5488   -1.5839   -0.4089 C.ar      1 <1>        -0.0743 
      9 C9          7.1054   -1.3392   -1.6697 C.ar      1 <1>        -0.0003 
     10 C10         7.9520   -0.0999   -1.8726 C.2       1 <1>         0.0774 
     11 C11         9.2950   -0.2712   -2.4599 C.2       1 <1>         0.2383 
     12 O12         9.7308   -1.5049   -2.7551 O.3       1 <1>        -0.2865 
     13 C13        11.0390   -1.5376   -3.3578 C.3       1 <1>         0.0638 
     14 O14         9.9873    0.7141   -2.6640 O.2       1 <1>        -0.3766 
     15 C15         7.4828    1.1053   -1.5237 C.2       1 <1>         0.0991 
     16 O16         6.2482    1.2130   -1.0075 O.3       1 <1>        -0.2546 
     17 C17         5.8756    2.5517   -0.6363 C.3       1 <1>         0.2442 
     18 C18         6.7606    3.1038    0.4560 C.2       1 <1>         0.0002 
     19 C19         7.3342    4.2371    0.0558 C.2       1 <1>         0.0293 
     20 C20         6.8259    4.4215   -1.3001 C.2       1 <1>         0.2496 
     21 O21         7.1326    5.3769   -1.9913 O.2       1 <1>        -0.3691 
     22 O22         6.0084    3.4713   -1.7389 O.3       1 <1>        -0.2295 
     23 C23         8.2771    5.1234    0.8225 C.3       1 <1>        -0.0323 
     24 H1          6.0933   -4.1896   -3.2346 H         1 <1>         0.0495 
     25 H2          5.1610   -4.6332   -0.9933 H         1 <1>         0.0529 
     26 H3          5.3925   -2.9389    0.8085 H         1 <1>         0.0491 
     27 H4          6.6790   -0.8684    0.3968 H         1 <1>         0.0518 
     28 H5         11.8029   -1.1201   -2.6824 H         1 <1>         0.0574 
     29 H6         11.0508   -0.9878   -4.3126 H         1 <1>         0.0574 
     30 H7         11.2899   -2.5892   -3.5596 H         1 <1>         0.0574 
     31 H8          8.1326    1.9691   -1.6827 H         1 <1>         0.1269 
     32 H9          4.8284    2.5436   -0.2934 H         1 <1>         0.1223 
     33 H10         6.9041    2.6375    1.4300 H         1 <1>         0.0707 
     34 H11         7.9309    5.2380    1.8607 H         1 <1>         0.0347 
     35 H12         8.3299    6.1173    0.3531 H         1 <1>         0.0347 
     36 H13         9.2813    4.6744    0.8240 H         1 <1>         0.0347 
@<TRIPOS>BOND
     1    2    1 1    
     2    2    3 2    
     3    2    4 2    
     4    1    5 ar   
     5    5    6 ar   
     6    6    7 ar   
     7    7    8 ar   
     8    8    9 ar   
     9    1    9 ar   
    10    9   10 1    
    11   10   11 1    
    12   11   12 1    
    13   12   13 1    
    14   11   14 2    
    15   10   15 2    
    16   15   16 1    
    17   16   17 1    
    18   17   18 1    
    19   18   19 2    
    20   19   20 1    
    21   20   21 2    
    22   20   22 1    
    23   17   22 1    
    24   19   23 1    
    25    5   24 1    
    26    6   25 1    
    27    7   26 1    
    28    8   27 1    
    29   13   28 1    
    30   13   29 1    
    31   13   30 1    
    32   15   31 1    
    33   17   32 1    
    34   18   33 1    
    35   23   34 1    
    36   23   35 1    
    37   23   36 1    
@<TRIPOS>SUBSTRUCTURE
     1 ****        2 TEMP              0 ****  ****    0 ROOT 
@<TRIPOS>NORMAL
@<TRIPOS>FF_PBC
FORCE_FIELD_SETUP_FEATURE Force Field Setup information
v1.0  0 0.000000 0.000000 0.000000 0.000000 0.000000 0.000000 NONE 0 0 0 0 1 0 0 0 0 0 0 0 0
