#	Name:			PISM00425
#	Creating user name:	malab
#	Creation time:		Wed Apr 10 23:27:48 2019

#	Modifying user name:	malab
#	Modification time:	Wed Apr 10 23:33:12 2019

@<TRIPOS>MOLECULE
PISM00425
   42    42     1     2     0
SMALL
USER_CHARGES


@<TRIPOS>ATOM
      1 C1        -13.7548   -0.2061    8.0215 C.3       1 <1>         0.0000 
      2 C2        -13.3329    1.2908    8.1352 C.3       1 <1>         0.0000 
      3 C3        -13.7930    1.8728    9.4434 C.2       1 <1>         0.0000 
      4 C4        -14.9893    1.3417   10.1137 C.2       1 <1>         0.0000 
      5 C5        -15.7087    0.3488    9.5743 C.2       1 <1>         0.0000 
      6 C6        -15.3117   -0.2750    8.2476 C.3       1 <1>         0.0000 
      7 C7        -13.0041   -1.0274    9.1202 C.3       1 <1>         0.0000 
      8 C8        -13.3758   -0.7669    6.6051 C.3       1 <1>         0.0000 
      9 O9        -13.1719    2.7909    9.9552 O.2       1 <1>         0.0000 
     10 C10       -16.9603   -0.1756   10.2463 C.3       1 <1>         0.0000 
     11 C11       -11.8586   -0.9798    6.3376 C.3       1 <1>         0.0000 
     12 H1        -13.7725    1.8934    7.3258 H         1 <1>         0.0000 
     13 H2        -12.2393    1.3956    8.0767 H         1 <1>         0.0000 
     14 C14       -15.8002   -1.7135    8.2069 C.2       1 <1>         0.0000 
     15 O15       -16.0214    0.5727    7.3239 O.3       1 <1>         0.0000 
     16 H3        -15.2746    1.7881   11.0661 H         1 <1>         0.0000 
     17 H4        -13.0747   -2.1081    8.9303 H         1 <1>         0.0000 
     18 H5        -13.4039   -0.8357   10.1261 H         1 <1>         0.0000 
     19 H6        -11.9351   -0.7690    9.1445 H         1 <1>         0.0000 
     20 H20       -13.7336   -0.0846    5.8189 H         1 <1>         0.0000 
     21 H21       -13.8660   -1.7411    6.4502 H         1 <1>         0.0000 
     22 H9        -17.7775   -0.2424    9.5119 H         1 <1>         0.0000 
     23 H10       -17.2975    0.4794   11.0640 H         1 <1>         0.0000 
     24 H11       -16.7754   -1.1741   10.6691 H         1 <1>         0.0000 
     25 C25       -16.6978   -2.2108    7.3446 C.2       1 <1>         0.0000 
     26 H12       -15.3990   -2.4023    8.9485 H         1 <1>         0.0000 
     27 H13       -15.8993    0.3605    6.4074 H         1 <1>         0.0000 
     28 H14       -17.1613   -1.5807    6.5892 H         1 <1>         0.0000 
     29 C29       -17.1061   -3.6324    7.3574 C.2       1 <1>         0.0000 
     30 C30       -18.3869   -4.0066    7.2132 C.2       1 <1>         0.0000 
     31 C31       -19.5573   -3.1146    7.0784 C.2       1 <1>         0.0000 
     32 C32       -16.0344   -4.6875    7.5226 C.3       1 <1>         0.0000 
     33 O33       -20.6159   -3.5906    6.6958 O.2       1 <1>         0.0000 
     34 O34       -19.4569   -1.8165    7.3862 O.3       1 <1>         0.0000 
     35 H15       -18.6163   -5.0729    7.1982 H         1 <1>         0.0000 
     36 H16       -15.0464   -4.2928    7.2401 H         1 <1>         0.0000 
     37 H17       -16.2356   -5.5653    6.8893 H         1 <1>         0.0000 
     38 H18       -16.0001   -5.0094    8.5741 H         1 <1>         0.0000 
     39 H19       -20.2666   -1.3311    7.2675 H         1 <1>         0.0000 
     40 H7        -11.7122   -1.2997    5.2927 H         1 <1>         0.0000 
     41 H8        -11.4405   -1.7671    6.9828 H         1 <1>         0.0000 
     42 H22       -11.2846   -0.0547    6.4882 H         1 <1>         0.0000 
@<TRIPOS>BOND
     1    2    1 1    
     2    2    3 1    
     3    3    4 1    
     4    4    5 2    
     5    5    6 1    
     6    1    6 1    
     7    1    7 1    
     8    1    8 1    
     9    3    9 2    
    10    5   10 1    
    11    8   11 1    
    12    2   12 1    
    13    2   13 1    
    14    6   14 1    
    15    6   15 1    
    16    4   16 1    
    17    7   17 1    
    18    7   18 1    
    19    7   19 1    
    20    8   20 1    
    21    8   21 1    
    22   10   22 1    
    23   10   23 1    
    24   10   24 1    
    25   14   25 2    
    26   14   26 1    
    27   15   27 1    
    28   25   28 1    
    29   25   29 1    
    30   29   30 2    
    31   30   31 1    
    32   29   32 1    
    33   31   33 2    
    34   31   34 1    
    35   30   35 1    
    36   32   36 1    
    37   32   37 1    
    38   32   38 1    
    39   34   39 1    
    40   11   40 1    
    41   11   41 1    
    42   11   42 1    
@<TRIPOS>SUBSTRUCTURE
     1 ****        2 TEMP              0 ****  ****    0 ROOT 
@<TRIPOS>NORMAL
@<TRIPOS>FF_PBC
FORCE_FIELD_SETUP_FEATURE Force Field Setup information
v1.0  0 0.000000 0.000000 0.000000 0.000000 0.000000 0.000000 NONE 0 0 0 0 0 0 0 0 0 0 0 0 0
@<TRIPOS>RENDERING_ATTRS
ANTIALIASED_LINES 
*
