#	Name:			PISM01003
#	Creating user name:	malab
#	Creation time:		Mon Jul 01 21:42:31 2019

#	Modifying user name:	malab
#	Modification time:	Mon Jul 01 21:46:13 2019

@<TRIPOS>MOLECULE
PISM01003
   51    53     1     1     0
SMALL
GAST_HUCK


@<TRIPOS>ATOM
      1 C1          9.8567    9.5980   26.7113 C.3       1 <1>        -0.0652 
      2 C2         10.4705   11.0067   26.9209 C.3       1 <1>        -0.0535 
      3 C3          9.7624   12.0668   26.0341 C.3       1 <1>        -0.0253 
      4 C4         10.3720   13.4767   26.2331 C.3       1 <1>         0.0704 
      5 O5          9.6696   14.3976   25.3818 O.3       1 <1>        -0.3180 
      6 C6         10.1302   15.7100   25.4697 C.ar      1 <1>         0.0912 
      7 C7         11.2459   16.1114   24.7305 C.ar      1 <1>        -0.0313 
      8 C8         11.7240   17.4201   24.8423 C.ar      1 <1>        -0.0440 
      9 C9         11.0864   18.3288   25.6924 C.ar      1 <1>         0.0971 
     10 C10         9.9517   17.9337   26.4071 C.ar      1 <1>        -0.0440 
     11 C11         9.4750   16.6243   26.2979 C.ar      1 <1>        -0.0313 
     12 S12        11.7460   19.9610   25.9175 S.o2      1 <1>         0.0658 
     13 O13        10.6623   20.8659   26.2479 O.2       1 <1>        -0.1515 
     14 O14        12.6191   20.2824   24.8053 O.2       1 <1>        -0.1515 
     15 N15        12.6575   19.6589   27.2554 N.am      1 <1>        -0.2314 
     16 C16        12.1414   19.9326   28.5936 C.3       1 <1>         0.0498 
     17 C17        12.1128   18.5950   29.3721 C.3       1 <1>         0.0500 
     18 N18        13.4280   17.9655   29.2262 N.am      1 <1>        -0.2695 
     19 C19        13.9255   17.6735   27.8793 C.3       1 <1>         0.0500 
     20 C20        13.9598   19.0153   27.1080 C.3       1 <1>         0.0498 
     21 C21        14.1878   17.6398   30.3092 C.2       1 <1>         0.2310 
     22 O22        15.2373   17.0291   30.1843 O.2       1 <1>        -0.3897 
     23 C23        13.8196   17.9973   31.6959 C.2       1 <1>         0.1844 
     24 C24        13.6634   19.2553   32.1149 C.2       1 <1>        -0.0436 
     25 C25        13.3138   19.0982   33.5240 C.2       1 <1>        -0.0557 
     26 C26        13.3296   17.7750   33.6942 C.2       1 <1>         0.0866 
     27 O27        13.6323   17.0427   32.6175 O.3       1 <1>        -0.2506 
     28 H1         10.3729    8.8611   27.3469 H         1 <1>         0.0230 
     29 H2          9.9596    9.2865   25.6601 H         1 <1>         0.0230 
     30 H3          8.7879    9.6013   26.9762 H         1 <1>         0.0230 
     31 H4         11.5439   10.9727   26.6699 H         1 <1>         0.0263 
     32 H5         10.3729   11.2886   27.9826 H         1 <1>         0.0263 
     33 H6          8.6896   12.1062   26.2847 H         1 <1>         0.0291 
     34 H7          9.8576   11.7875   24.9719 H         1 <1>         0.0291 
     35 H8         11.4433   13.4580   25.9727 H         1 <1>         0.0614 
     36 H9         10.2660   13.7847   27.2866 H         1 <1>         0.0614 
     37 H10        11.7376   15.4035   24.0714 H         1 <1>         0.0542 
     38 H11        12.5916   17.7289   24.2694 H         1 <1>         0.0608 
     39 H12         9.4427   18.6444   27.0494 H         1 <1>         0.0608 
     40 H13         8.5977   16.3114   26.8544 H         1 <1>         0.0542 
     41 H14        11.1345   20.3775   28.5822 H         1 <1>         0.0498 
     42 H15        12.8212   20.6364   29.0984 H         1 <1>         0.0498 
     43 H16        11.3682   17.9342   28.9008 H         1 <1>         0.0537 
     44 H17        11.7776   18.7638   30.4057 H         1 <1>         0.0537 
     45 H18        13.2238   16.9852   27.3819 H         1 <1>         0.0537 
     46 H19        14.9267   17.2133   27.8475 H         1 <1>         0.0537 
     47 H20        14.2265   18.8344   26.0550 H         1 <1>         0.0498 
     48 H21        14.7302   19.6676   27.5488 H         1 <1>         0.0498 
     49 H22        13.7718   20.1799   31.5498 H         1 <1>         0.0434 
     50 H23        13.0956   19.8774   34.2537 H         1 <1>         0.0364 
     51 H24        13.1091   17.3086   34.6546 H         1 <1>         0.1039 
@<TRIPOS>BOND
     1    2    1 1    
     2    2    3 1    
     3    3    4 1    
     4    4    5 1    
     5    5    6 1    
     6    6    7 ar   
     7    7    8 ar   
     8    8    9 ar   
     9    9   10 ar   
    10   10   11 ar   
    11    6   11 ar   
    12    9   12 1    
    13   12   13 2    
    14   12   14 2    
    15   12   15 1    
    16   15   16 1    
    17   16   17 1    
    18   17   18 1    
    19   18   19 1    
    20   19   20 1    
    21   15   20 1    
    22   18   21 am   
    23   21   22 2    
    24   21   23 1    
    25   23   24 2    
    26   24   25 1    
    27   25   26 2    
    28   26   27 1    
    29   23   27 1    
    30    1   28 1    
    31    1   29 1    
    32    1   30 1    
    33    2   31 1    
    34    2   32 1    
    35    3   33 1    
    36    3   34 1    
    37    4   35 1    
    38    4   36 1    
    39    7   37 1    
    40    8   38 1    
    41   10   39 1    
    42   11   40 1    
    43   16   41 1    
    44   16   42 1    
    45   17   43 1    
    46   17   44 1    
    47   19   45 1    
    48   19   46 1    
    49   20   47 1    
    50   20   48 1    
    51   24   49 1    
    52   25   50 1    
    53   26   51 1    
@<TRIPOS>SUBSTRUCTURE
     1 ****        2 TEMP              0 ****  ****    0 ROOT 
@<TRIPOS>NORMAL
@<TRIPOS>FF_PBC
FORCE_FIELD_SETUP_FEATURE Force Field Setup information
v1.0  0 0.000000 0.000000 0.000000 0.000000 0.000000 0.000000 NONE 0 0 0 0 1 0 0 0 0 0 0 0 0
