#	Name:			PISM00495
#	Creating user name:	malab
#	Creation time:		Thu Apr 04 11:11:30 2019

#	Modifying user name:	malab
#	Modification time:	Thu Apr 04 11:13:08 2019

@<TRIPOS>MOLECULE
PISM00495
   39    41     1     1     0
SMALL
GAST_HUCK


@<TRIPOS>ATOM
      1 C1         -1.6043   -2.7585   -3.2206 C.ar      1 <1>         0.0170 
      2 C2         -2.1543   -2.0684   -2.1389 C.ar      1 <1>        -0.0135 
      3 C3         -2.9513   -2.7592   -1.2239 C.ar      1 <1>         0.0751 
      4 C4         -3.1514   -4.1326   -1.3909 C.ar      1 <1>        -0.0135 
      5 C5         -2.5588   -4.7774   -2.4791 C.ar      1 <1>         0.0170 
      6 N6         -1.8149   -4.0836   -3.3637 N.ar      1 <1>        -0.2917 
      7 C7         -3.5734   -2.0282   -0.0540 C.2       1 <1>         0.2385 
      8 O8         -2.8145   -1.3231    0.5898 O.2       1 <1>        -0.3617 
      9 N9         -4.8431   -2.1915    0.2181 N.pl3     1 <1>        -0.2397 
     10 C10        -5.4638   -1.6240    1.2847 C.ar      1 <1>         0.0685 
     11 C11        -5.0450   -0.3875    1.7968 C.ar      1 <1>        -0.0450 
     12 C12        -5.4495    0.0240    3.0695 C.ar      1 <1>        -0.0649 
     13 C13        -6.3611   -0.7519    3.7883 C.ar      1 <1>         0.0213 
     14 C14        -6.9431   -1.8685    3.1854 C.ar      1 <1>        -0.0519 
     15 C15        -6.5523   -2.2678    1.9003 C.ar      1 <1>         0.0201 
     16 Cl16       -6.7810   -0.3194    5.4348 Cl        1 <1>        -0.0836 
     17 C17        -7.3426   -3.3814    1.1884 C.3       1 <1>         0.1200 
     18 O18        -6.6053   -3.9486    0.0862 O.3       1 <1>        -0.3690 
     19 C19        -7.7894   -4.4977    2.1445 C.ar      1 <1>        -0.0054 
     20 C20        -6.9104   -5.5414    2.4560 C.ar      1 <1>        -0.0562 
     21 C21        -7.3323   -6.6018    3.2636 C.ar      1 <1>        -0.0682 
     22 C22        -8.6189   -6.5992    3.8106 C.ar      1 <1>        -0.0686 
     23 C23        -9.4881   -5.5410    3.5323 C.ar      1 <1>        -0.0682 
     24 C24        -9.0751   -4.4955    2.7015 C.ar      1 <1>        -0.0562 
     25 H1         -1.0025   -2.2342   -3.9571 H         1 <1>         0.0837 
     26 H2         -1.9697   -1.0046   -2.0111 H         1 <1>         0.0763 
     27 H3         -3.7502   -4.6934   -0.6800 H         1 <1>         0.0763 
     28 H4         -2.6917   -5.8451   -2.6194 H         1 <1>         0.0837 
     29 H5         -5.3968   -2.8170   -0.3896 H         1 <1>         0.2086 
     30 H6         -4.4138    0.2761    1.2133 H         1 <1>         0.0510 
     31 H7         -5.0643    0.9455    3.4960 H         1 <1>         0.0537 
     32 H8         -7.7039   -2.4119    3.7323 H         1 <1>         0.0533 
     33 H9         -8.2320   -2.8737    0.7785 H         1 <1>         0.0894 
     34 H10        -7.0963   -4.6258   -0.3750 H         1 <1>         0.2158 
     35 H11        -5.8955   -5.5308    2.0692 H         1 <1>         0.0560 
     36 H12        -6.6612   -7.4306    3.4670 H         1 <1>         0.0600 
     37 H13        -8.9430   -7.4165    4.4539 H         1 <1>         0.0560 
     38 H14       -10.4858   -5.5331    3.9636 H         1 <1>         0.0600 
     39 H15        -9.7626   -3.6806    2.4962 H         1 <1>         0.0560 
@<TRIPOS>BOND
     1    2    1 ar   
     2    2    3 ar   
     3    3    4 ar   
     4    4    5 ar   
     5    5    6 ar   
     6    1    6 ar   
     7    3    7 1    
     8    7    8 2    
     9    7    9 1    
    10    9   10 1    
    11   10   11 ar   
    12   11   12 ar   
    13   12   13 ar   
    14   13   14 ar   
    15   14   15 ar   
    16   10   15 ar   
    17   13   16 1    
    18   15   17 1    
    19   17   18 1    
    20   17   19 1    
    21   19   20 ar   
    22   20   21 ar   
    23   21   22 ar   
    24   22   23 ar   
    25   23   24 ar   
    26   19   24 ar   
    27    1   25 1    
    28    2   26 1    
    29    4   27 1    
    30    5   28 1    
    31    9   29 1    
    32   11   30 1    
    33   12   31 1    
    34   14   32 1    
    35   17   33 1    
    36   18   34 1    
    37   20   35 1    
    38   21   36 1    
    39   22   37 1    
    40   23   38 1    
    41   24   39 1    
@<TRIPOS>SUBSTRUCTURE
     1 ****        2 TEMP              0 ****  ****    0 ROOT 
@<TRIPOS>NORMAL
@<TRIPOS>FF_PBC
FORCE_FIELD_SETUP_FEATURE Force Field Setup information
v1.0  0 0.000000 0.000000 0.000000 0.000000 0.000000 0.000000 NONE 0 0 0 0 1 0 0 0 0 0 0 0 0
