#	Name:			PISM00848
#	Creating user name:	baoopengkun
#	Creation time:		Thu Dec 13 15:12:19 2018

#	Modifying user name:	baoopengkun
#	Modification time:	Thu Dec 13 15:14:09 2018

@<TRIPOS>MOLECULE
PISM00848
   24    25     1     1     0
SMALL
NO_CHARGES


@<TRIPOS>ATOM
      1 Cl1        -4.0632   -0.1261    1.0831 Cl        1 <1>         0.0000 
      2 C2         -2.8666   -0.0501   -0.1943 C.ar      1 <1>         0.0000 
      3 C3         -3.2017    0.5113   -1.4306 C.ar      1 <1>         0.0000 
      4 C4         -2.2654    0.5333   -2.4685 C.ar      1 <1>         0.0000 
      5 C5         -0.9716    0.0545   -2.2472 C.ar      1 <1>         0.0000 
      6 C6         -0.6128   -0.4206   -0.9841 C.ar      1 <1>         0.0000 
      7 C7         -1.5776   -0.5461    0.0206 C.ar      1 <1>         0.0000 
      8 Cl8        -1.1655   -1.3162    1.5392 Cl        1 <1>         0.0000 
      9 O9          0.7151   -0.7468   -0.7269 O.3       1 <1>         0.0000 
     10 C10         1.4074    0.3724   -0.1534 C.3       1 <1>         0.0000 
     11 O11         1.2616    1.5428   -0.9881 O.3       1 <1>         0.0000 
     12 C12         2.4875    1.8389   -1.3996 C.2       1 <1>         0.0000 
     13 C13         3.5439    0.9740   -0.8892 C.2       1 <1>         0.0000 
     14 C14         2.8894    0.0869   -0.1415 C.2       1 <1>         0.0000 
     15 C15         5.0204    1.0703   -1.1566 C.3       1 <1>         0.0000 
     16 O16         2.7064    2.7724   -2.1531 O.2       1 <1>         0.0000 
     17 H1         -4.1913    0.9290   -1.5848 H         1 <1>         0.0000 
     18 H2         -2.5401    0.9239   -3.4435 H         1 <1>         0.0000 
     19 H3         -0.2424    0.0587   -3.0515 H         1 <1>         0.0000 
     20 H4          1.0437    0.5977    0.8623 H         1 <1>         0.0000 
     21 H5          3.3504   -0.7356    0.4047 H         1 <1>         0.0000 
     22 H6          5.5516    0.2055   -0.7322 H         1 <1>         0.0000 
     23 H7          5.4139    1.9905   -0.7015 H         1 <1>         0.0000 
     24 H8          5.1974    1.1021   -2.2413 H         1 <1>         0.0000 
@<TRIPOS>BOND
     1    2    1 1    
     2    2    3 ar   
     3    3    4 ar   
     4    4    5 ar   
     5    5    6 ar   
     6    6    7 ar   
     7    2    7 ar   
     8    7    8 1    
     9    6    9 1    
    10    9   10 1    
    11   10   11 1    
    12   11   12 1    
    13   12   13 1    
    14   13   14 2    
    15   10   14 1    
    16   13   15 1    
    17   12   16 2    
    18    3   17 1    
    19    4   18 1    
    20    5   19 1    
    21   10   20 1    
    22   14   21 1    
    23   15   22 1    
    24   15   23 1    
    25   15   24 1    
@<TRIPOS>SUBSTRUCTURE
     1 ****        2 TEMP              0 ****  ****    0 ROOT 
@<TRIPOS>NORMAL
@<TRIPOS>FF_PBC
FORCE_FIELD_SETUP_FEATURE Force Field Setup information
v1.0  0 0.000000 0.000000 0.000000 0.000000 0.000000 0.000000 NONE 0 0 0 0 0 0 0 0 0 0 0 0 0
