#	Name:			PISM01177
#	Creating user name:	baoopengkun
#	Creation time:		Tue Dec 18 17:10:54 2018

#	Modifying user name:	baoopengkun
#	Modification time:	Tue Dec 18 17:12:34 2018

@<TRIPOS>MOLECULE
PISM01177
   41    41     1     1     0
SMALL
GAST_HUCK


@<TRIPOS>ATOM
      1 C1          4.0067   40.9758  -11.2468 C.3       1 <1>        -0.0636 
      2 C2          5.2526   40.4639  -10.4773 C.3       1 <1>        -0.0370 
      3 C3          6.3369   41.5710  -10.3558 C.3       1 <1>         0.0213 
      4 N4          7.5287   41.1790   -9.5949 N.pl3     1 <1>        -0.3191 
      5 C5          8.6705   42.0951   -9.5000 C.3       1 <1>         0.0213 
      6 C6          8.5848   42.9831   -8.2324 C.3       1 <1>        -0.0370 
      7 C7          9.7438   44.0126   -8.1791 C.3       1 <1>        -0.0636 
      8 C8          7.6453   39.9220   -9.1000 C.ar      1 <1>         0.0919 
      9 C9          7.3006   39.6629   -7.7639 C.ar      1 <1>         0.1401 
     10 C10         7.5117   38.3828   -7.2382 C.ar      1 <1>        -0.0346 
     11 C11         8.0274   37.3622   -8.0377 C.ar      1 <1>         0.0731 
     12 C12         8.3039   37.6130   -9.3821 C.ar      1 <1>        -0.0346 
     13 C13         8.1129   38.8883   -9.9282 C.ar      1 <1>         0.1401 
     14 N14         6.7625   40.6263   -6.9727 N.pl3     1 <1>         0.1126 
     15 O15         6.0529   41.4619   -7.4837 O.2       1 <1>        -0.1170 
     16 O16         7.0021   40.5797   -5.7856 O.2       1 <1>        -0.1170 
     17 N17         8.3797   39.0977  -11.2448 N.pl3     1 <1>         0.1126 
     18 O18         8.7064   40.2052  -11.6052 O.2       1 <1>        -0.1170 
     19 O19         8.2883   38.1498  -11.9944 O.2       1 <1>        -0.1170 
     20 S20         8.2938   35.7392   -7.3661 S.o2      1 <1>         0.0546 
     21 O21         7.3381   34.8322   -7.9685 O.2       1 <1>        -0.1525 
     22 O22         8.3930   35.8306   -5.9236 O.2       1 <1>        -0.1525 
     23 N23         9.7730   35.3941   -7.9504 N.am      1 <1>        -0.2627 
     24 H1          3.5536   41.8307  -10.7208 H         1 <1>         0.0230 
     25 H2          3.2540   40.1753  -11.3250 H         1 <1>         0.0230 
     26 H3          4.2857   41.2937  -12.2636 H         1 <1>         0.0230 
     27 H4          5.6654   39.5947  -11.0145 H         1 <1>         0.0281 
     28 H5          4.9382   40.1348   -9.4736 H         1 <1>         0.0281 
     29 H6          5.8937   42.4530   -9.8671 H         1 <1>         0.0503 
     30 H7          6.6403   41.8668  -11.3731 H         1 <1>         0.0503 
     31 H8          8.7031   42.7443  -10.3899 H         1 <1>         0.0503 
     32 H9          9.6163   41.5281   -9.4746 H         1 <1>         0.0503 
     33 H10         8.6369   42.3470   -7.3347 H         1 <1>         0.0281 
     34 H11         7.6225   43.5203   -8.2260 H         1 <1>         0.0281 
     35 H12         9.6647   44.6242   -7.2663 H         1 <1>         0.0230 
     36 H13         9.7056   44.6824   -9.0524 H         1 <1>         0.0230 
     37 H14        10.7166   43.4965   -8.1713 H         1 <1>         0.0230 
     38 H15         7.2697   38.1667   -6.2033 H         1 <1>         0.0396 
     39 H16         8.6742   36.7991   -9.9959 H         1 <1>         0.0396 
     40 H17         9.8975   34.6147   -8.5638 H         1 <1>         0.1633 
     41 H18        10.5598   35.9470   -7.6781 H         1 <1>         0.1633 
@<TRIPOS>BOND
     1    2    1 1    
     2    2    3 1    
     3    3    4 1    
     4    4    5 1    
     5    5    6 1    
     6    6    7 1    
     7    4    8 1    
     8    8    9 ar   
     9    9   10 ar   
    10   10   11 ar   
    11   11   12 ar   
    12   12   13 ar   
    13    8   13 ar   
    14    9   14 1    
    15   14   15 2    
    16   14   16 2    
    17   13   17 1    
    18   17   18 2    
    19   17   19 2    
    20   11   20 1    
    21   20   21 2    
    22   20   22 2    
    23   20   23 1    
    24    1   24 1    
    25    1   25 1    
    26    1   26 1    
    27    2   27 1    
    28    2   28 1    
    29    3   29 1    
    30    3   30 1    
    31    5   31 1    
    32    5   32 1    
    33    6   33 1    
    34    6   34 1    
    35    7   35 1    
    36    7   36 1    
    37    7   37 1    
    38   10   38 1    
    39   12   39 1    
    40   23   40 1    
    41   23   41 1    
@<TRIPOS>SUBSTRUCTURE
     1 ****        2 TEMP              0 ****  ****    0 ROOT 
@<TRIPOS>NORMAL
@<TRIPOS>FF_PBC
FORCE_FIELD_SETUP_FEATURE Force Field Setup information
v1.0  0 0.000000 0.000000 0.000000 0.000000 0.000000 0.000000 NONE 0 0 0 0 1 0 0 0 0 0 0 0 0
