#	Name:			PISM00229
#	Creating user name:	14062
#	Creation time:		Sat Apr 06 00:20:42 2019

#	Modifying user name:	14062
#	Modification time:	Sat Apr 06 00:25:45 2019

@<TRIPOS>MOLECULE
PISM00229
   31    32     1     1     0
SMALL
GAST_HUCK


@<TRIPOS>ATOM
      1 C1          0.2707    2.1742    4.2129 C.ar      1 <1>        -0.0338 
      2 C2         -0.5348    1.7140    3.1668 C.ar      1 <1>        -0.0262 
      3 C3         -0.0609    0.7352    2.2840 C.ar      1 <1>         0.0401 
      4 C4          1.2291    0.2249    2.4742 C.ar      1 <1>        -0.0243 
      5 C5          2.0416    0.6769    3.5200 C.ar      1 <1>         0.0460 
      6 C6          1.5513    1.6479    4.3990 C.ar      1 <1>        -0.0336 
      7 C7          3.4546    0.1059    3.6914 C.3       1 <1>         0.3764 
      8 F8          3.3756   -1.0705    4.3674 F         1 <1>        -0.2201 
      9 F9          4.2472    0.9659    4.3862 F         1 <1>        -0.2201 
     10 F10         4.0196   -0.1177    2.4746 F         1 <1>        -0.2201 
     11 C11        -0.8879    0.2005    1.1299 C.2       1 <1>         0.1298 
     12 C12        -2.0679    0.6967    0.7445 C.2       1 <1>        -0.0477 
     13 C13        -2.4412   -0.1601   -0.3782 C.2       1 <1>        -0.0480 
     14 C14        -1.4187   -1.0122   -0.4656 C.2       1 <1>         0.1305 
     15 O15        -0.4361   -0.8422    0.4229 O.3       1 <1>        -0.2536 
     16 C16        -1.3336   -2.0933   -1.4615 C.2       1 <1>         0.0641 
     17 N17        -2.3145   -2.3090   -2.2445 N.2       1 <1>        -0.1934 
     18 N18        -2.3148   -3.2866   -3.1831 N.pl3     1 <1>        -0.1800 
     19 C19        -3.4331   -3.6354   -3.7583 C.2       1 <1>         0.1707 
     20 N20        -3.4779   -4.6049   -4.6967 N.am      1 <1>        -0.2908 
     21 S21        -4.8996   -2.8587   -3.3265 S.2       1 <1>        -0.2815 
     22 H1         -0.1003    2.9428    4.8851 H         1 <1>         0.0692 
     23 H2         -1.5293    2.1289    3.0615 H         1 <1>         0.0845 
     24 H3          1.6128   -0.5358    1.8024 H         1 <1>         0.0834 
     25 H4          2.1595    1.9962    5.2285 H         1 <1>         0.0835 
     26 H5         -2.6591    1.5276    1.1243 H         1 <1>         0.0412 
     27 H6         -3.3407   -0.1092   -0.9908 H         1 <1>         0.0413 
     28 H7         -0.4210   -2.6878   -1.4923 H         1 <1>         0.0816 
     29 H8         -1.4361   -3.7560   -3.4472 H         1 <1>         0.2396 
     30 H9         -2.6606   -5.0964   -4.9935 H         1 <1>         0.1957 
     31 H10        -4.3582   -4.8410   -5.1089 H         1 <1>         0.1957 
@<TRIPOS>BOND
     1    2    1 ar   
     2    2    3 ar   
     3    3    4 ar   
     4    4    5 ar   
     5    6    5 ar   
     6    1    6 ar   
     7    5    7 1    
     8    7    8 1    
     9    7    9 1    
    10    7   10 1    
    11    3   11 1    
    12   11   12 2    
    13   12   13 1    
    14   14   13 2    
    15   15   14 1    
    16   11   15 1    
    17   14   16 1    
    18   16   17 2    
    19   17   18 1    
    20   18   19 1    
    21   19   20 am   
    22   19   21 2    
    23    1   22 1    
    24    2   23 1    
    25    4   24 1    
    26    6   25 1    
    27   12   26 1    
    28   13   27 1    
    29   16   28 1    
    30   18   29 1    
    31   20   30 1    
    32   20   31 1    
@<TRIPOS>SUBSTRUCTURE
     1 ****        2 TEMP              0 ****  ****    0 ROOT 
@<TRIPOS>NORMAL
@<TRIPOS>FF_PBC
FORCE_FIELD_SETUP_FEATURE Force Field Setup information
v1.0  0 0.000000 0.000000 0.000000 0.000000 0.000000 0.000000 NONE 0 0 0 0 1 0 0 0 0 0 0 0 0
