#	Name:			PISM01057
#	Creating user name:	malab
#	Creation time:		Tue Jul 02 23:19:17 2019

#	Modifying user name:	malab
#	Modification time:	Tue Jul 02 23:22:04 2019

@<TRIPOS>MOLECULE
PISM01057
   48    51     1     1     0
SMALL
GAST_HUCK


@<TRIPOS>ATOM
      1 C1        -16.2865   11.0474    3.7104 C.3       1 <1>        -0.0247 
      2 C2        -17.4352   12.0953    3.8359 C.3       1 <1>        -0.0049 
      3 C3        -18.5789   11.8392    2.8132 C.3       1 <1>         0.1284 
      4 C4        -18.0359   11.1731    1.5738 C.2       1 <1>         0.1372 
      5 C5        -16.6194   11.5060    1.1986 C.3       1 <1>         0.0436 
      6 C6        -15.5722   11.2690    2.3265 C.3       1 <1>        -0.0099 
      7 C7        -16.8343    9.6228    4.0234 C.3       1 <1>        -0.0592 
      8 C8        -15.2145   11.3598    4.8022 C.3       1 <1>        -0.0592 
      9 C9        -15.5485   10.4096    1.0277 C.3       1 <1>        -0.0064 
     10 C10       -15.9919    8.9267    0.9087 C.3       1 <1>         0.0205 
     11 C11       -14.8495    7.9219    1.2682 C.3       1 <1>         0.0824 
     12 O12       -15.0151    6.7387    0.4581 O.3       1 <1>        -0.2822 
     13 C13       -15.6682    7.1534   -0.6154 C.2       1 <1>         0.2353 
     14 O14       -15.8226    6.4508   -1.5996 O.2       1 <1>        -0.3780 
     15 C15       -16.2025    8.5036   -0.5193 C.2       1 <1>         0.0529 
     16 C16       -16.7657    9.2109   -1.5039 C.2       1 <1>         0.0787 
     17 O17       -17.1823   10.4593   -1.2624 O.3       1 <1>        -0.2722 
     18 C18       -17.9722   11.0361   -2.3128 C.3       1 <1>         0.2383 
     19 O19       -17.2906   11.0192   -3.5830 O.3       1 <1>        -0.2305 
     20 C20       -18.0969   10.3459   -4.3959 C.2       1 <1>         0.2495 
     21 O21       -17.8215   10.1637   -5.5689 O.2       1 <1>        -0.3691 
     22 C22       -19.3234    9.8381   -3.7878 C.2       1 <1>         0.0293 
     23 C23       -19.2466   10.2562   -2.5258 C.2       1 <1>        -0.0010 
     24 C24       -20.4195    9.0379   -4.4362 C.3       1 <1>        -0.0323 
     25 O25       -19.2908   13.0526    2.5039 O.3       1 <1>        -0.3724 
     26 O26       -18.7132   10.4001    0.9148 O.2       1 <1>        -0.3885 
     27 H27       -16.4693   12.4162    0.5958 H         1 <1>         0.0538 
     28 H28       -14.8501   12.1030    2.3087 H         1 <1>         0.0339 
     29 H1        -17.0039   13.0908    3.6433 H         1 <1>         0.0321 
     30 H2        -17.8533   12.1117    4.8558 H         1 <1>         0.0321 
     31 H3        -19.3162   11.1474    3.2528 H         1 <1>         0.0829 
     32 H4        -17.6953    9.3337    3.4116 H         1 <1>         0.0235 
     33 H5        -17.1799    9.5748    5.0674 H         1 <1>         0.0235 
     34 H6        -16.0393    8.8767    3.9054 H         1 <1>         0.0235 
     35 H7        -15.6296   11.2609    5.8172 H         1 <1>         0.0235 
     36 H8        -14.3676   10.6624    4.7068 H         1 <1>         0.0235 
     37 H9        -14.8257   12.3856    4.7063 H         1 <1>         0.0235 
     38 H10       -14.7375   10.7013    0.3396 H         1 <1>         0.0350 
     39 H11       -16.9184    8.6638    1.4280 H         1 <1>         0.0419 
     40 H12       -14.7991    7.6499    2.3316 H         1 <1>         0.0627 
     41 H13       -13.8788    8.3614    0.9832 H         1 <1>         0.0627 
     42 H14       -16.8571    8.7182   -2.4744 H         1 <1>         0.1070 
     43 H15       -18.2179   12.0739   -2.0372 H         1 <1>         0.1210 
     44 H16       -19.9876   10.0685   -1.7493 H         1 <1>         0.0706 
     45 H17       -20.3272    7.9831   -4.1378 H         1 <1>         0.0347 
     46 H18       -20.3442    9.1082   -5.5318 H         1 <1>         0.0347 
     47 H19       -21.4030    9.4180   -4.1215 H         1 <1>         0.0347 
     48 H20       -18.7551   13.6970    2.0532 H         1 <1>         0.2134 
@<TRIPOS>BOND
     1    2    1 1    
     2    2    3 1    
     3    3    4 1    
     4    4    5 1    
     5    5    6 1    
     6    1    6 1    
     7    1    7 1    
     8    1    8 1    
     9    6    9 1    
    10    5    9 1    
    11    9   10 1    
    12   10   11 1    
    13   11   12 1    
    14   12   13 1    
    15   13   14 2    
    16   13   15 1    
    17   10   15 1    
    18   15   16 2    
    19   16   17 1    
    20   17   18 1    
    21   18   19 1    
    22   19   20 1    
    23   20   21 2    
    24   20   22 1    
    25   22   23 2    
    26   18   23 1    
    27   22   24 1    
    28    3   25 1    
    29    4   26 2    
    30    5   27 1    
    31    6   28 1    
    32    2   29 1    
    33    2   30 1    
    34    3   31 1    
    35    7   32 1    
    36    7   33 1    
    37    7   34 1    
    38    8   35 1    
    39    8   36 1    
    40    8   37 1    
    41    9   38 1    
    42   10   39 1    
    43   11   40 1    
    44   11   41 1    
    45   16   42 1    
    46   18   43 1    
    47   23   44 1    
    48   24   45 1    
    49   24   46 1    
    50   24   47 1    
    51   25   48 1    
@<TRIPOS>SUBSTRUCTURE
     1 ****        2 TEMP              0 ****  ****    0 ROOT 
@<TRIPOS>NORMAL
@<TRIPOS>FF_PBC
FORCE_FIELD_SETUP_FEATURE Force Field Setup information
v1.0  0 0.000000 0.000000 0.000000 0.000000 0.000000 0.000000 NONE 0 0 0 0 1 0 0 0 0 0 0 0 0
