#	Name:			PISM00845
#	Creating user name:	baoopengkun
#	Creation time:		Thu Dec 13 14:40:19 2018

#	Modifying user name:	baoopengkun
#	Modification time:	Thu Dec 13 15:02:24 2018

@<TRIPOS>MOLECULE
PISM00845
   28    29     1     1     0
SMALL
GAST_HUCK


@<TRIPOS>ATOM
      1 C1         -7.1044   22.4555    5.5289 C.ar      1 <1>        -0.0411 
      2 C2         -6.8895   22.5004    4.1482 C.ar      1 <1>        -0.0415 
      3 C3         -6.5714   21.3310    3.4526 C.ar      1 <1>         0.0794 
      4 C4         -6.4756   20.1150    4.1349 C.ar      1 <1>        -0.0415 
      5 C5         -6.6902   20.0700    5.5155 C.ar      1 <1>        -0.0411 
      6 C6         -7.0093   21.2393    6.2109 C.ar      1 <1>         0.0865 
      7 O7         -6.3500   21.3783    2.0771 O.3       1 <1>        -0.3284 
      8 O8         -7.2322   21.1914    7.5850 O.3       1 <1>        -0.2784 
      9 C9         -8.6169   21.0263    7.9147 C.3       1 <1>         0.2335 
     10 C10        -8.7494   21.0990    9.4155 C.2       1 <1>        -0.0023 
     11 C11        -9.4853   22.1508    9.7692 C.2       1 <1>         0.0291 
     12 C12        -9.8424   22.7618    8.4937 C.2       1 <1>         0.2494 
     13 O13        -9.3862   22.1391    7.4146 O.3       1 <1>        -0.2317 
     14 C14        -9.8531   22.6058   11.1550 C.3       1 <1>        -0.0323 
     15 O15       -10.5200   23.7722    8.4160 O.2       1 <1>        -0.3691 
     16 C16        -4.9638   21.4981    1.7206 C.3       1 <1>         0.0569 
     17 H1         -7.3457   23.3619    6.0746 H         1 <1>         0.0516 
     18 H2         -6.9683   23.4401    3.6118 H         1 <1>         0.0516 
     19 H3         -6.2352   19.2090    3.5885 H         1 <1>         0.0516 
     20 H4         -6.6103   19.1299    6.0511 H         1 <1>         0.0516 
     21 H5         -9.0193   20.0748    7.5288 H         1 <1>         0.1194 
     22 H6         -8.2972   20.3909   10.1086 H         1 <1>         0.0705 
     23 H7        -10.2373   23.6366   11.1275 H         1 <1>         0.0347 
     24 H8         -8.9692   22.5729   11.8094 H         1 <1>         0.0347 
     25 H9        -10.6309   21.9446   11.5649 H         1 <1>         0.0347 
     26 H10        -4.8909   21.5286    0.6236 H         1 <1>         0.0573 
     27 H11        -4.3861   20.6362    2.0892 H         1 <1>         0.0573 
     28 H12        -4.5355   22.4266    2.1298 H         1 <1>         0.0573 
@<TRIPOS>BOND
     1    2    1 ar   
     2    2    3 ar   
     3    3    4 ar   
     4    4    5 ar   
     5    5    6 ar   
     6    1    6 ar   
     7    3    7 1    
     8    6    8 1    
     9    8    9 1    
    10    9   10 1    
    11   10   11 2    
    12   11   12 1    
    13   12   13 1    
    14    9   13 1    
    15   11   14 1    
    16   12   15 2    
    17    7   16 1    
    18    1   17 1    
    19    2   18 1    
    20    4   19 1    
    21    5   20 1    
    22    9   21 1    
    23   10   22 1    
    24   14   23 1    
    25   14   24 1    
    26   14   25 1    
    27   16   26 1    
    28   16   27 1    
    29   16   28 1    
@<TRIPOS>SUBSTRUCTURE
     1 ****        2 TEMP              0 ****  ****    0 ROOT 
@<TRIPOS>NORMAL
@<TRIPOS>FF_PBC
FORCE_FIELD_SETUP_FEATURE Force Field Setup information
v1.0  0 0.000000 0.000000 0.000000 0.000000 0.000000 0.000000 NONE 0 0 0 0 1 0 0 0 0 0 0 0 0
