#	Name:			PISM00886.1
#	Creating user name:	baoopengkun
#	Creation time:		Fri Dec 14 09:30:18 2018

#	Modifying user name:	baoopengkun
#	Modification time:	Fri Dec 14 09:40:48 2018

@<TRIPOS>MOLECULE
PISM00886.1
   32    34     1     1     0
SMALL
GAST_HUCK


@<TRIPOS>ATOM
      1 C1          3.4531    7.3504    1.9235 C.ar      1 <1>        -0.0389 
      2 C2          2.7339    8.1410    2.8265 C.ar      1 <1>         0.0322 
      3 C3          2.6439    9.5182    2.6033 C.ar      1 <1>        -0.0389 
      4 C4          3.2683   10.0976    1.4951 C.ar      1 <1>        -0.0308 
      5 C5          3.9899    9.3103    0.5911 C.ar      1 <1>         0.0123 
      6 C6          4.0787    7.9310    0.8156 C.ar      1 <1>        -0.0308 
      7 C7          4.6439    9.9886   -0.5954 C.2       1 <1>         0.0984 
      8 N8          4.5401   11.4080   -0.8354 N.2       1 <1>        -0.2027 
      9 N9          5.2521   11.5780   -1.9619 N.2       1 <1>        -0.0753 
     10 N10         5.7366   10.3929   -2.3869 N.pl3     1 <1>        -0.1108 
     11 C11         5.3832    9.4423   -1.5673 C.2       1 <1>         0.1123 
     12 C12         6.5691   10.2313   -3.5664 C.3       1 <1>         0.2475 
     13 C13         5.6715   10.0234   -4.7618 C.2       1 <1>         0.0023 
     14 C14         5.8712    8.8168   -5.2893 C.2       1 <1>         0.0296 
     15 C15         6.9127    8.2428   -4.4455 C.2       1 <1>         0.2499 
     16 O16         7.3573    9.0272   -3.4715 O.3       1 <1>        -0.2279 
     17 O17         7.3501    7.1187   -4.6165 O.2       1 <1>        -0.3691 
     18 C18         5.1998    8.1819   -6.4764 C.3       1 <1>        -0.0323 
     19 F19         0.6950    7.6188    3.8868 F         1 <1>        -0.2360 
     20 F20         2.3947    8.2395    5.1630 F         1 <1>        -0.2360 
     21 C21         2.0418    7.5360    4.0537 C.3       1 <1>         0.3603 
     22 F22         2.3867    6.2322    4.2334 F         1 <1>        -0.2360 
     23 H1          3.5293    6.2784    2.0770 H         1 <1>         0.0822 
     24 H2          2.0847   10.1411    3.2953 H         1 <1>         0.0822 
     25 H3          3.1881   11.1693    1.3405 H         1 <1>         0.0668 
     26 H4          4.6306    7.2911    0.1377 H         1 <1>         0.0668 
     27 H5          5.6531    8.3933   -1.6742 H         1 <1>         0.1226 
     28 H6          7.2239   11.1079   -3.6981 H         1 <1>         0.1250 
     29 H7          4.9584   10.7602   -5.1300 H         1 <1>         0.0709 
     30 H8          4.5723    8.9101   -7.0122 H         1 <1>         0.0347 
     31 H9          4.5695    7.3476   -6.1343 H         1 <1>         0.0347 
     32 H10         5.9645    7.7934   -7.1656 H         1 <1>         0.0347 
@<TRIPOS>BOND
     1    2    1 ar   
     2    2    3 ar   
     3    3    4 ar   
     4    4    5 ar   
     5    5    6 ar   
     6    1    6 ar   
     7    5    7 1    
     8    7    8 1    
     9    8    9 2    
    10    9   10 1    
    11   10   11 1    
    12    7   11 2    
    13   10   12 1    
    14   12   13 1    
    15   13   14 2    
    16   14   15 1    
    17   15   16 1    
    18   12   16 1    
    19   15   17 2    
    20   14   18 1    
    21   21   19 1    
    22   21   20 1    
    23    2   21 1    
    24   21   22 1    
    25    1   23 1    
    26    3   24 1    
    27    4   25 1    
    28    6   26 1    
    29   11   27 1    
    30   12   28 1    
    31   13   29 1    
    32   18   30 1    
    33   18   31 1    
    34   18   32 1    
@<TRIPOS>SUBSTRUCTURE
     1 ****        2 TEMP              0 ****  ****    0 ROOT 
@<TRIPOS>NORMAL
@<TRIPOS>FF_PBC
FORCE_FIELD_SETUP_FEATURE Force Field Setup information
v1.0  0 0.000000 0.000000 0.000000 0.000000 0.000000 0.000000 NONE 0 0 0 0 1 0 0 0 0 0 0 0 0
