#	Name:			PISM00540
#	Creating user name:	malab
#	Creation time:		Thu Apr 04 21:50:42 2019

#	Modifying user name:	malab
#	Modification time:	Thu Apr 04 21:52:44 2019

@<TRIPOS>MOLECULE
PISM00540
   37    39     1     1     0
SMALL
GAST_HUCK


@<TRIPOS>ATOM
      1 C1         20.1178    6.2863   -4.3581 C.ar      1 <1>        -0.0618 
      2 C2         20.3492    6.1291   -2.9889 C.ar      1 <1>        -0.0702 
      3 C3         20.9661    7.0986   -5.1199 C.ar      1 <1>        -0.0038 
      4 C4         22.0288    7.7679   -4.5054 C.ar      1 <1>         0.0755 
      5 C5         22.2882    7.5807   -3.1423 C.ar      1 <1>         0.1137 
      6 C6         21.4362    6.7673   -2.3845 C.ar      1 <1>        -0.0299 
      7 C7         20.7759    7.2609   -6.4961 C.ar      1 <1>        -0.0411 
      8 C8         21.5968    8.1388   -7.2084 C.ar      1 <1>        -0.0319 
      9 C9         22.6119    8.8335   -6.5392 C.ar      1 <1>         0.0342 
     10 N10        22.8130    8.5998   -5.2256 N.ar      1 <1>        -0.2988 
     11 O11        23.3926    8.2098   -2.5560 O.3       1 <1>        -0.3268 
     12 C12        23.4895    9.8664   -7.2160 C.2       1 <1>        -0.0407 
     13 C13        23.7285    9.9229   -8.5334 C.2       1 <1>        -0.0550 
     14 C14        24.5526   11.0293   -9.1597 C.ar      1 <1>        -0.0281 
     15 C15        25.4448   10.7470  -10.2029 C.ar      1 <1>         0.0050 
     16 C16        26.1269   11.7862  -10.8421 C.ar      1 <1>        -0.0259 
     17 C17        25.9622   13.1067  -10.4207 C.ar      1 <1>         0.1254 
     18 C18        25.1258   13.3836   -9.3341 C.ar      1 <1>         0.1272 
     19 C19        24.4167   12.3504   -8.7155 C.ar      1 <1>        -0.0275 
     20 Br20       25.7479    9.0022  -10.7533 Br        1 <1>        -0.0584 
     21 O21        26.6352   14.1334  -11.0871 O.3       1 <1>        -0.3318 
     22 O22        24.9986   14.6971   -8.8770 O.3       1 <1>        -0.3219 
     23 C23        25.8147   15.0016   -7.7342 C.3       1 <1>         0.0577 
     24 H1         19.2774    5.7779   -4.8202 H         1 <1>         0.0521 
     25 H2         19.6833    5.5112   -2.3939 H         1 <1>         0.0596 
     26 H3         21.6107    6.6272   -1.3228 H         1 <1>         0.0530 
     27 H4         19.9937    6.7141   -7.0141 H         1 <1>         0.0732 
     28 H5         21.4210    8.2780   -8.2674 H         1 <1>         0.0684 
     29 H6         23.6552    7.8358   -1.7230 H         1 <1>         0.2516 
     30 H7         23.9463   10.5956   -6.5490 H         1 <1>         0.0600 
     31 H8         23.3359    9.1654   -9.2076 H         1 <1>         0.0683 
     32 H9         26.7908   11.5729  -11.6724 H         1 <1>         0.0557 
     33 H10        23.7515   12.5958   -7.8958 H         1 <1>         0.0539 
     34 H11        26.3800   14.9933  -10.7681 H         1 <1>         0.2472 
     35 H12        25.5420   14.3708   -6.8747 H         1 <1>         0.0574 
     36 H13        25.6497   16.0555   -7.4630 H         1 <1>         0.0574 
     37 H14        26.8807   14.8583   -7.9687 H         1 <1>         0.0574 
@<TRIPOS>BOND
     1    1    2 ar   
     2    1    3 ar   
     3    3    4 ar   
     4    4    5 ar   
     5    5    6 ar   
     6    2    6 ar   
     7    3    7 ar   
     8    7    8 ar   
     9    8    9 ar   
    10    9   10 ar   
    11    4   10 ar   
    12    5   11 1    
    13    9   12 1    
    14   12   13 2    
    15   13   14 1    
    16   14   15 ar   
    17   15   16 ar   
    18   16   17 ar   
    19   17   18 ar   
    20   18   19 ar   
    21   14   19 ar   
    22   15   20 1    
    23   17   21 1    
    24   18   22 1    
    25   22   23 1    
    26    1   24 1    
    27    2   25 1    
    28    6   26 1    
    29    7   27 1    
    30    8   28 1    
    31   11   29 1    
    32   12   30 1    
    33   13   31 1    
    34   16   32 1    
    35   19   33 1    
    36   21   34 1    
    37   23   35 1    
    38   23   36 1    
    39   23   37 1    
@<TRIPOS>SUBSTRUCTURE
     1 ****        1 TEMP              0 ****  ****    0 ROOT 
@<TRIPOS>NORMAL
@<TRIPOS>FF_PBC
FORCE_FIELD_SETUP_FEATURE Force Field Setup information
v1.0  0 0.000000 0.000000 0.000000 0.000000 0.000000 0.000000 NONE 0 0 0 0 1 0 0 0 0 0 0 0 0
