#	Name:			PISM00712
#	Creating user name:	baoopengkun
#	Creation time:		Sun Jan 20 21:34:04 2019

#	Modifying user name:	baoopengkun
#	Modification time:	Sun Jan 20 21:39:25 2019

@<TRIPOS>MOLECULE
PISM00712
   84    87     1     1     0
SMALL
GAST_HUCK


@<TRIPOS>ATOM
      1 C1          1.4568    2.6042    8.2501 C.3       1 <1>        -0.0164 
      2 C2          1.0482    1.5666    9.3337 C.3       1 <1>         0.0819 
      3 C3          2.2963    0.8698    9.9409 C.3       1 <1>         0.0834 
      4 C4          3.2516    1.9444   10.5188 C.3       1 <1>        -0.0052 
      5 C5          3.6734    2.9478    9.4044 C.3       1 <1>         0.0406 
      6 C6          2.4656    3.6984    8.7347 C.3       1 <1>        -0.0079 
      7 C7          2.9269    4.6121    7.5208 C.3       1 <1>        -0.0299 
      8 C8          4.1535    4.0629    6.7128 C.3       1 <1>        -0.0321 
      9 C9          5.5293    4.2947    7.4399 C.3       1 <1>        -0.0337 
     10 C10         5.5138    4.7252    8.9416 C.3       1 <1>         0.0216 
     11 C11         4.7223    3.8968    9.9198 C.2       1 <1>         0.1086 
     12 O12         4.9407    4.0003   11.1161 O.2       1 <1>        -0.3913 
     13 C13         1.7813    5.0222    6.5404 C.3       1 <1>        -0.0488 
     14 C14         2.2181    6.1594    5.5594 C.3       1 <1>        -0.0468 
     15 C15         3.6651    5.9984    4.9720 C.3       1 <1>        -0.0258 
     16 C16         4.1031    4.5274    5.2138 C.3       1 <1>        -0.0321 
     17 C17         5.3317    4.2897    4.3006 C.3       1 <1>        -0.0492 
     18 C18         5.0653    5.2356    3.0932 C.3       1 <1>        -0.0491 
     19 C19         3.7699    6.0539    3.4051 C.3       1 <1>        -0.0304 
     20 O20         0.0977    0.6233    8.8048 O.3       1 <1>        -0.3892 
     21 O21         3.0359    0.1153    8.9607 O.3       1 <1>        -0.3891 
     22 H1          0.5193    3.0633    7.9014 H         1 <1>         0.0298 
     23 C23         1.7766    4.6265    9.7948 C.3       1 <1>        -0.0568 
     24 C24         4.6470    7.0289    5.6163 C.3       1 <1>        -0.0590 
     25 C25         3.7385    7.4468    2.6785 C.3       1 <1>        -0.0120 
     26 C26         3.8802    7.2625    1.1287 C.3       1 <1>         0.0841 
     27 C27         3.9083    8.6075    0.3230 C.3       1 <1>         0.0841 
     28 C28         4.6698    8.5125   -1.0508 C.3       1 <1>        -0.0130 
     29 C29         6.1795    8.9473   -0.9363 C.3       1 <1>        -0.0417 
     30 C30         6.9535    8.8162   -2.2842 C.3       1 <1>        -0.0623 
     31 C31         6.9718    8.1588    0.1489 C.3       1 <1>        -0.0623 
     32 C32         2.4530    8.2564    3.0158 C.3       1 <1>        -0.0597 
     33 O33         2.8021    6.4211    0.6677 O.3       1 <1>        -0.3890 
     34 O34         2.5579    9.0875    0.1781 O.3       1 <1>        -0.3890 
     35 C35         3.9378    9.3583   -2.1390 C.3       1 <1>        -0.0597 
     36 H2          1.9005    2.0512    7.4083 H         1 <1>         0.0298 
     37 H3          0.4964    2.0592   10.1490 H         1 <1>         0.0619 
     38 H4          1.9780    0.1962   10.7579 H         1 <1>         0.0621 
     39 H5          4.1475    1.4250   10.9011 H         1 <1>         0.0319 
     40 H6          2.7926    2.4508   11.3797 H         1 <1>         0.0319 
     41 H7          4.1934    2.2953    8.6925 H         1 <1>         0.0536 
     42 H8          3.2214    5.5852    7.9301 H         1 <1>         0.0310 
     43 H9          4.0179    2.9741    6.6065 H         1 <1>         0.0308 
     44 H10         6.0965    5.0970    6.9517 H         1 <1>         0.0293 
     45 H11         6.1413    3.3812    7.3428 H         1 <1>         0.0293 
     46 H12         0.8937    5.3880    7.0791 H         1 <1>         0.0268 
     47 H13         1.4508    4.1426    5.9667 H         1 <1>         0.0268 
     48 H14         2.1478    7.1126    6.1087 H         1 <1>         0.0271 
     49 H15         1.4655    6.1938    4.7558 H         1 <1>         0.0271 
     50 H16         3.3297    3.9104    4.7164 H         1 <1>         0.0309 
     51 H17         5.4153    3.2311    3.9987 H         1 <1>         0.0268 
     52 H18         6.2847    4.5616    4.7744 H         1 <1>         0.0268 
     53 H19         4.9497    4.6488    2.1659 H         1 <1>         0.0268 
     54 H20         5.9287    5.9092    2.9620 H         1 <1>         0.0268 
     55 H21         2.9188    5.4790    3.0010 H         1 <1>         0.0310 
     56 H22         0.4081    0.1539    8.0387 H         1 <1>         0.2099 
     57 H23         2.5602   -0.6335    8.6175 H         1 <1>         0.2099 
     58 H24         0.9175    5.1588    9.3662 H         1 <1>         0.0237 
     59 H25         2.4849    5.3825   10.1665 H         1 <1>         0.0237 
     60 H26         1.3971    4.0994   10.6760 H         1 <1>         0.0237 
     61 H27         4.6602    6.9502    6.7094 H         1 <1>         0.0235 
     62 H28         4.3377    8.0580    5.3899 H         1 <1>         0.0235 
     63 H29         5.6759    6.9071    5.2507 H         1 <1>         0.0235 
     64 H30         4.6064    8.0361    3.0155 H         1 <1>         0.0327 
     65 H31         4.8177    6.7238    0.9408 H         1 <1>         0.0622 
     66 H32         4.3987    9.3971    0.9130 H         1 <1>         0.0622 
     67 H33         4.6370    7.4698   -1.4057 H         1 <1>         0.0326 
     68 H34         6.2122   10.0124   -0.6468 H         1 <1>         0.0299 
     69 H35         6.8161    7.8087   -2.7054 H         1 <1>         0.0232 
     70 H36         8.0323    8.9820   -2.1396 H         1 <1>         0.0232 
     71 H37         6.6282    9.5615   -3.0239 H         1 <1>         0.0232 
     72 H38         6.9749    7.0840   -0.0881 H         1 <1>         0.0232 
     73 H39         6.5586    8.3111    1.1559 H         1 <1>         0.0232 
     74 H40         8.0184    8.4989    0.1901 H         1 <1>         0.0232 
     75 H41         2.4862    9.2638    2.5792 H         1 <1>         0.0233 
     76 H42         2.3369    8.4076    4.0944 H         1 <1>         0.0233 
     77 H43         1.5623    7.7352    2.6339 H         1 <1>         0.0233 
     78 H44         2.8773    6.1554   -0.2435 H         1 <1>         0.2099 
     79 H45         1.9701    8.4276   -0.1751 H         1 <1>         0.2099 
     80 H46         4.3872    9.2355   -3.1334 H         1 <1>         0.0233 
     81 H47         3.9617   10.4245   -1.8665 H         1 <1>         0.0233 
     82 H48         2.8887    9.0515   -2.2569 H         1 <1>         0.0233 
     83 H49         5.1851    5.7689    9.0591 H         1 <1>         0.0494 
     84 H50         6.5559    4.6960    9.3024 H         1 <1>         0.0494 
@<TRIPOS>BOND
     1    2    1 1    
     2    2    3 1    
     3    3    4 1    
     4    4    5 1    
     5    5    6 1    
     6    1    6 1    
     7    6    7 1    
     8    7    8 1    
     9    8    9 1    
    10    9   10 1    
    11   10   11 1    
    12   11   12 2    
    13    5   11 1    
    14    7   13 1    
    15   13   14 1    
    16   14   15 1    
    17   15   16 1    
    18    8   16 1    
    19   16   17 1    
    20   17   18 1    
    21   18   19 1    
    22   15   19 1    
    23    2   20 1    
    24    3   21 1    
    25    1   22 1    
    26    6   23 1    
    27   15   24 1    
    28   19   25 1    
    29   25   26 1    
    30   26   27 1    
    31   27   28 1    
    32   28   29 1    
    33   29   30 1    
    34   29   31 1    
    35   25   32 1    
    36   26   33 1    
    37   27   34 1    
    38   28   35 1    
    39    1   36 1    
    40    2   37 1    
    41    3   38 1    
    42    4   39 1    
    43    4   40 1    
    44    5   41 1    
    45    7   42 1    
    46    8   43 1    
    47    9   44 1    
    48    9   45 1    
    49   13   46 1    
    50   13   47 1    
    51   14   48 1    
    52   14   49 1    
    53   16   50 1    
    54   17   51 1    
    55   17   52 1    
    56   18   53 1    
    57   18   54 1    
    58   19   55 1    
    59   20   56 1    
    60   21   57 1    
    61   23   58 1    
    62   23   59 1    
    63   23   60 1    
    64   24   61 1    
    65   24   62 1    
    66   24   63 1    
    67   25   64 1    
    68   26   65 1    
    69   27   66 1    
    70   28   67 1    
    71   29   68 1    
    72   30   69 1    
    73   30   70 1    
    74   30   71 1    
    75   31   72 1    
    76   31   73 1    
    77   31   74 1    
    78   32   75 1    
    79   32   76 1    
    80   32   77 1    
    81   33   78 1    
    82   34   79 1    
    83   35   80 1    
    84   35   81 1    
    85   35   82 1    
    86   10   83 1    
    87   10   84 1    
@<TRIPOS>SUBSTRUCTURE
     1 ****        2 TEMP              0 ****  ****    0 ROOT 
@<TRIPOS>NORMAL
@<TRIPOS>FF_PBC
FORCE_FIELD_SETUP_FEATURE Force Field Setup information
v1.0  0 0.000000 0.000000 0.000000 0.000000 0.000000 0.000000 NONE 0 0 0 0 1 0 0 0 0 0 0 0 0
