#	Name:			PISM00949.1
#	Creating user name:	baoopengkun
#	Creation time:		Thu Dec 13 09:59:51 2018

#	Modifying user name:	baoopengkun
#	Modification time:	Thu Dec 13 10:02:07 2018

@<TRIPOS>MOLECULE
PISM00949.1
   47    48     1     1     0
SMALL
GAST_HUCK


@<TRIPOS>ATOM
      1 C1         -9.1759    3.8512   -2.4290 C.3       1 <1>        -0.0576 
      2 C2         -7.9802    3.0193   -1.8600 C.3       1 <1>        -0.0087 
      3 C3         -8.2539    2.7900   -0.3421 C.3       1 <1>        -0.0576 
      4 C4         -7.9829    1.6366   -2.5793 C.3       1 <1>        -0.0576 
      5 C5         -6.6353    3.8099   -2.0800 C.3       1 <1>         0.0926 
      6 O6         -6.2344    3.8503   -3.4647 O.3       1 <1>        -0.3880 
      7 C7         -5.3951    3.3096   -1.2737 C.3       1 <1>         0.1129 
      8 N8         -5.0819    1.9118   -1.5310 N.pl3     1 <1>        -0.1726 
      9 N9         -5.0504    0.9071   -0.6107 N.2       1 <1>        -0.1898 
     10 C10        -4.7258   -0.2259   -1.1128 C.2       1 <1>         0.0618 
     11 N11        -4.5373    0.1343   -2.4910 N.2       1 <1>        -0.2870 
     12 C12        -4.7533    1.3590   -2.6594 C.2       1 <1>         0.1282 
     13 C13        -4.0974    4.1241   -1.5604 C.3       1 <1>        -0.0151 
     14 C14        -4.1889    5.6251   -1.1657 C.3       1 <1>        -0.0220 
     15 C15        -2.8110    6.3281   -1.2633 C.3       1 <1>         0.0705 
     16 O16        -2.9967    7.7090   -0.9099 O.3       1 <1>        -0.3180 
     17 C17        -1.9401    8.6313   -0.8992 C.ar      1 <1>         0.0911 
     18 C18        -2.2196    9.9607   -0.5693 C.ar      1 <1>        -0.0331 
     19 C19        -1.2044   10.9210   -0.5403 C.ar      1 <1>        -0.0706 
     20 C20         0.1086   10.5523   -0.8435 C.ar      1 <1>        -0.0729 
     21 C21         0.3973    9.2260   -1.1756 C.ar      1 <1>        -0.0706 
     22 C22        -0.6212    8.2677   -1.2056 C.ar      1 <1>        -0.0331 
     23 H1         -9.1034    3.9783   -3.5183 H         1 <1>         0.0236 
     24 H2         -9.2189    4.8488   -1.9656 H         1 <1>         0.0236 
     25 H3        -10.1361    3.3518   -2.2267 H         1 <1>         0.0236 
     26 H4         -7.5247    2.0948    0.0991 H         1 <1>         0.0236 
     27 H5         -9.2507    2.3496   -0.1865 H         1 <1>         0.0236 
     28 H6         -8.2107    3.7434    0.2066 H         1 <1>         0.0236 
     29 H7         -7.7044    1.7438   -3.6381 H         1 <1>         0.0236 
     30 H8         -8.9848    1.1828   -2.5357 H         1 <1>         0.0236 
     31 H9         -7.2939    0.9266   -2.1059 H         1 <1>         0.0236 
     32 H10        -6.8175    4.8405   -1.7339 H         1 <1>         0.0631 
     33 H11        -6.8544    4.2791   -4.0440 H         1 <1>         0.2099 
     34 H12        -5.5908    3.4043   -0.1938 H         1 <1>         0.0705 
     35 H13        -4.6217   -1.1949   -0.6269 H         1 <1>         0.0863 
     36 H14        -4.6705    1.8573   -3.6243 H         1 <1>         0.1361 
     37 H15        -3.8287    4.0503   -2.6258 H         1 <1>         0.0298 
     38 H16        -3.2844    3.6581   -0.9789 H         1 <1>         0.0298 
     39 H17        -4.5594    5.7229   -0.1322 H         1 <1>         0.0292 
     40 H18        -4.8799    6.1596   -1.8367 H         1 <1>         0.0292 
     41 H19        -2.4292    6.2469   -2.2943 H         1 <1>         0.0614 
     42 H20        -2.1056    5.8503   -0.5640 H         1 <1>         0.0614 
     43 H21        -3.2398   10.2450   -0.3336 H         1 <1>         0.0542 
     44 H22        -1.4356   11.9501   -0.2830 H         1 <1>         0.0589 
     45 H23         0.9016   11.2939   -0.8210 H         1 <1>         0.0523 
     46 H24         1.4180    8.9396   -1.4114 H         1 <1>         0.0589 
     47 H25        -0.3590    7.2507   -1.4696 H         1 <1>         0.0542 
@<TRIPOS>BOND
     1    2    1 1    
     2    2    3 1    
     3    2    4 1    
     4    2    5 1    
     5    5    6 1    
     6    5    7 1    
     7    7    8 1    
     8    8    9 1    
     9    9   10 2    
    10   10   11 1    
    11   11   12 2    
    12    8   12 1    
    13    7   13 1    
    14   13   14 1    
    15   14   15 1    
    16   15   16 1    
    17   16   17 1    
    18   17   18 ar   
    19   18   19 ar   
    20   19   20 ar   
    21   20   21 ar   
    22   21   22 ar   
    23   17   22 ar   
    24    1   23 1    
    25    1   24 1    
    26    1   25 1    
    27    3   26 1    
    28    3   27 1    
    29    3   28 1    
    30    4   29 1    
    31    4   30 1    
    32    4   31 1    
    33    5   32 1    
    34    6   33 1    
    35    7   34 1    
    36   10   35 1    
    37   12   36 1    
    38   13   37 1    
    39   13   38 1    
    40   14   39 1    
    41   14   40 1    
    42   15   41 1    
    43   15   42 1    
    44   18   43 1    
    45   19   44 1    
    46   20   45 1    
    47   21   46 1    
    48   22   47 1    
@<TRIPOS>SUBSTRUCTURE
     1 ****        2 TEMP              0 ****  ****    0 ROOT 
@<TRIPOS>NORMAL
@<TRIPOS>FF_PBC
FORCE_FIELD_SETUP_FEATURE Force Field Setup information
v1.0  0 0.000000 0.000000 0.000000 0.000000 0.000000 0.000000 NONE 0 0 0 0 1 0 0 0 0 0 0 0 0
