#	Name:			PISM00137
#	Creating user name:	baoopengkun
#	Creation time:		Fri Jan 04 09:41:12 2019

#	Modifying user name:	baoopengkun
#	Modification time:	Fri Jan 04 09:43:13 2019

@<TRIPOS>MOLECULE
PISM00137
   42    43     1     1     0
SMALL
GAST_HUCK


@<TRIPOS>ATOM
      1 O1          3.7327   -5.7400    9.1836 O.3       1 <1>        -0.2929 
      2 C2          2.5237   -6.2934    9.0655 C.2       1 <1>         0.2646 
      3 O3          1.6076   -5.9147    9.7785 O.2       1 <1>        -0.3550 
      4 C4          2.2913   -7.3682    8.0249 C.ar      1 <1>         0.0790 
      5 C5          3.1343   -7.4273    6.9091 C.ar      1 <1>        -0.0354 
      6 C6          2.8540   -8.3030    5.8564 C.ar      1 <1>        -0.0517 
      7 C7          1.7311   -9.1319    5.9210 C.ar      1 <1>        -0.0519 
      8 C8          0.9319   -9.1294    7.0673 C.ar      1 <1>        -0.0384 
      9 C9          1.2444   -8.2910    8.1430 C.ar      1 <1>         0.0501 
     10 C10         0.4510   -8.4209    9.4242 C.2       1 <1>         0.1494 
     11 O11         1.0657   -8.5126   10.4744 O.2       1 <1>        -0.3787 
     12 C12        -1.0631   -8.4521    9.4047 C.ar      1 <1>         0.0500 
     13 C13        -1.7572   -7.8722    8.3361 C.ar      1 <1>        -0.0622 
     14 C14        -3.1539   -7.8974    8.3006 C.ar      1 <1>        -0.0483 
     15 C15        -3.8704   -8.4933    9.3413 C.ar      1 <1>         0.0369 
     16 C16        -3.1797   -9.0650   10.4132 C.ar      1 <1>        -0.0101 
     17 C17        -1.7803   -9.0511   10.4480 C.ar      1 <1>         0.0967 
     18 O18        -1.0978   -9.6462   11.5112 O.3       1 <1>        -0.3308 
     19 N19        -5.2246   -8.5229    9.3068 N.pl3     1 <1>        -0.3084 
     20 C20        -5.9057   -9.2514    8.2340 C.3       1 <1>         0.0249 
     21 C21        -5.2268  -10.6173    7.9559 C.3       1 <1>        -0.0452 
     22 C22        -5.9961   -7.8905   10.3786 C.3       1 <1>         0.0249 
     23 C23        -6.7325   -6.6538    9.8080 C.3       1 <1>        -0.0452 
     24 H1          3.7505   -5.0838    9.8718 H         1 <1>         0.2524 
     25 H2          4.0073   -6.7848    6.8502 H         1 <1>         0.0684 
     26 H3          3.5054   -8.3370    4.9881 H         1 <1>         0.0664 
     27 H4          1.4835   -9.7797    5.0853 H         1 <1>         0.0665 
     28 H5          0.0728   -9.7909    7.1236 H         1 <1>         0.0681 
     29 H6         -1.2184   -7.3887    7.5279 H         1 <1>         0.0611 
     30 H7         -3.6816   -7.4480    7.4662 H         1 <1>         0.0446 
     31 H8         -3.7372   -9.5329   11.2172 H         1 <1>         0.0447 
     32 H9         -1.5474   -9.5575   12.3434 H         1 <1>         0.2507 
     33 H10        -5.9035   -8.6369    7.3196 H         1 <1>         0.0514 
     34 H11        -6.9569   -9.4463    8.5036 H         1 <1>         0.0514 
     35 H12        -5.7967  -11.1810    7.2005 H         1 <1>         0.0249 
     36 H13        -5.1891  -11.2069    8.8850 H         1 <1>         0.0249 
     37 H14        -4.2005  -10.4791    7.5827 H         1 <1>         0.0249 
     38 H15        -5.3461   -7.5526   11.2035 H         1 <1>         0.0514 
     39 H16        -6.7201   -8.6081   10.7978 H         1 <1>         0.0514 
     40 H17        -7.2967   -6.1412   10.6031 H         1 <1>         0.0249 
     41 H18        -7.4353   -6.9516    9.0152 H         1 <1>         0.0249 
     42 H19        -5.9991   -5.9513    9.3823 H         1 <1>         0.0249 
@<TRIPOS>BOND
     1    2    1 1    
     2    2    3 2    
     3    2    4 1    
     4    4    5 ar   
     5    5    6 ar   
     6    6    7 ar   
     7    7    8 ar   
     8    8    9 ar   
     9    4    9 ar   
    10    9   10 1    
    11   10   11 2    
    12   10   12 1    
    13   12   13 ar   
    14   13   14 ar   
    15   14   15 ar   
    16   15   16 ar   
    17   16   17 ar   
    18   12   17 ar   
    19   17   18 1    
    20   15   19 1    
    21   19   20 1    
    22   20   21 1    
    23   19   22 1    
    24   22   23 1    
    25    1   24 1    
    26    5   25 1    
    27    6   26 1    
    28    7   27 1    
    29    8   28 1    
    30   13   29 1    
    31   14   30 1    
    32   16   31 1    
    33   18   32 1    
    34   20   33 1    
    35   20   34 1    
    36   21   35 1    
    37   21   36 1    
    38   21   37 1    
    39   22   38 1    
    40   22   39 1    
    41   23   40 1    
    42   23   41 1    
    43   23   42 1    
@<TRIPOS>SUBSTRUCTURE
     1 ****        2 TEMP              0 ****  ****    0 ROOT 
@<TRIPOS>NORMAL
@<TRIPOS>FF_PBC
FORCE_FIELD_SETUP_FEATURE Force Field Setup information
v1.0  0 0.000000 0.000000 0.000000 0.000000 0.000000 0.000000 NONE 0 0 0 0 1 0 0 0 0 0 0 0 0
