#	Name:			PISM00870.1
#	Creating user name:	baoopengkun
#	Creation time:		Thu Dec 13 23:15:37 2018

#	Modifying user name:	baoopengkun
#	Modification time:	Thu Dec 13 23:51:11 2018

@<TRIPOS>MOLECULE
PISM00870.1
   24    25     1     1     0
SMALL
GAST_HUCK


@<TRIPOS>ATOM
      1 H2          1.2258    0.3610    1.5733 H         1 <1>         0.0533 
      2 C2          2.6635   -1.1461    2.1381 C.ar      1 <1>        -0.0367 
      3 C3          3.9757   -1.6031    1.9910 C.ar      1 <1>         0.1208 
      4 C4          4.8672   -0.9167    1.1628 C.ar      1 <1>        -0.0230 
      5 C5          4.4443    0.2237    0.4744 C.ar      1 <1>         0.0667 
      6 C6          3.1302    0.6799    0.6182 C.ar      1 <1>         0.1083 
      7 C7          2.2415   -0.0017    1.4547 C.ar      1 <1>        -0.0336 
      8 Cl8         5.5603    1.0789   -0.5712 Cl        1 <1>        -0.0797 
      9 O9          2.7084    1.8158   -0.0706 O.3       1 <1>        -0.2726 
     10 C10         1.9579    1.5476   -1.2640 C.3       1 <1>         0.2351 
     11 O11         1.6648    2.8145   -1.8849 O.3       1 <1>        -0.2314 
     12 C12         2.3261    2.8029   -3.0356 C.2       1 <1>         0.2494 
     13 C13         3.0520    1.5726   -3.3301 C.2       1 <1>         0.0292 
     14 C14         2.8104    0.8073   -2.2681 C.2       1 <1>        -0.0020 
     15 C15         3.8667    1.2396   -4.5498 C.3       1 <1>        -0.0323 
     16 O16         2.3146    3.7557   -3.7960 O.2       1 <1>        -0.3691 
     17 H1          1.9770   -1.6829    2.7847 H         1 <1>         0.0579 
     18 F18         4.3766   -2.6923    2.6401 F         1 <1>        -0.1928 
     19 H3          5.8862   -1.2722    1.0564 H         1 <1>         0.0582 
     20 H4          1.0174    1.0133   -1.0515 H         1 <1>         0.1198 
     21 H5          3.1841   -0.2078   -2.1402 H         1 <1>         0.0705 
     22 H6          3.6081    0.2343   -4.9145 H         1 <1>         0.0347 
     23 H7          4.9361    1.2667   -4.2930 H         1 <1>         0.0347 
     24 H8          3.6716    1.9699   -5.3495 H         1 <1>         0.0347 
@<TRIPOS>BOND
     1    7    1 1    
     2    3    2 ar   
     3    4    3 ar   
     4    5    4 ar   
     5    6    5 ar   
     6    6    7 ar   
     7    2    7 ar   
     8    5    8 1    
     9    6    9 1    
    10    9   10 1    
    11   10   11 1    
    12   11   12 1    
    13   12   13 1    
    14   13   14 2    
    15   10   14 1    
    16   13   15 1    
    17   12   16 2    
    18    2   17 1    
    19    3   18 1    
    20    4   19 1    
    21   10   20 1    
    22   14   21 1    
    23   15   22 1    
    24   15   23 1    
    25   15   24 1    
@<TRIPOS>SUBSTRUCTURE
     1 ****        2 TEMP              0 ****  ****    0 ROOT 
@<TRIPOS>NORMAL
@<TRIPOS>FF_PBC
FORCE_FIELD_SETUP_FEATURE Force Field Setup information
v1.0  0 0.000000 0.000000 0.000000 0.000000 0.000000 0.000000 NONE 0 0 0 0 1 0 0 0 0 0 0 0 0
