#	Name:			PISM01053
#	Creating user name:	malab
#	Creation time:		Thu Jul 04 18:27:40 2019

#	Modifying user name:	malab
#	Modification time:	Thu Jul 04 18:34:08 2019

@<TRIPOS>MOLECULE
PISM01053
   48    49     1     1     0
SMALL
GAST_HUCK


@<TRIPOS>ATOM
      1 C1         -0.6669   -1.4738   29.5751 C.3       1 <1>        -0.1025 
      2 C2         -0.2388   -2.2048   28.2669 C.3       1 <1>        -0.1056 
      3 C3          0.2090   -1.2027   27.1807 C.3       1 <1>        -0.0399 
      4 C4         -0.9949   -0.2966   26.8357 C.3       1 <1>         0.0352 
      5 C5         -1.6968    0.2576   28.0555 C.2       1 <1>         0.0179 
      6 C6         -1.5432   -0.2667   29.2845 C.2       1 <1>        -0.0702 
      7 C7         -1.4211   -2.5050   30.4679 C.3       1 <1>        -0.1223 
      8 C8          0.5739   -0.9528   30.3613 C.3       1 <1>        -0.1223 
      9 H9          1.0568   -0.5963   27.5329 H         1 <1>         0.0307 
     10 C10        -2.2355    0.3559   30.4291 C.2       1 <1>        -0.0855 
     11 C11        -1.8652    1.5570   30.8884 C.2       1 <1>        -0.0661 
     12 C12        -2.5251    2.2322   32.0261 C.2       1 <1>         0.0819 
     13 C13        -2.5954    1.4481   27.7831 C.3       1 <1>         0.0256 
     14 H14        -1.9704    2.3419   27.6390 H         1 <1>         0.0689 
     15 C15        -2.6912    3.5613   31.9827 C.2       1 <1>         0.1117 
     16 C16        -3.0128    1.4762   33.2052 C.2       1 <1>         0.2420 
     17 O17        -2.2556    4.2492   30.9146 O.3       1 <1>        -0.2456 
     18 C18        -2.5191    5.6602   30.9886 C.3       1 <1>         0.2473 
     19 O19        -3.9402    5.8818   31.0923 O.3       1 <1>        -0.2289 
     20 C20        -4.2848    6.4786   29.9581 C.2       1 <1>         0.2497 
     21 O21        -5.4403    6.7788   29.7140 O.2       1 <1>        -0.3691 
     22 C22        -3.1892    6.7540   29.0354 C.2       1 <1>         0.0294 
     23 C23        -2.1220    6.2683   29.6661 C.2       1 <1>         0.0008 
     24 C24        -3.2470    7.4318   27.6937 C.3       1 <1>        -0.0323 
     25 H1         -1.0899   -2.7779   27.8632 H         1 <1>         0.0057 
     26 H2          0.5749   -2.9189   28.4738 H         1 <1>         0.0057 
     27 H3          0.5393   -1.7439   26.2776 H         1 <1>         0.0307 
     28 H4         -1.7385   -0.8777   26.2669 H         1 <1>         0.0723 
     29 H5         -0.6362    0.5243   26.1937 H         1 <1>         0.0723 
     30 H6         -2.3725   -2.7942   29.9954 H         1 <1>         0.0017 
     31 H7         -1.6428   -2.1031   31.4674 H         1 <1>         0.0017 
     32 H8         -0.8102   -3.4109   30.6035 H         1 <1>         0.0017 
     33 H10         1.2844   -1.7715   30.5518 H         1 <1>         0.0017 
     34 H11         0.2708   -0.5368   31.3342 H         1 <1>         0.0017 
     35 H12         1.0983   -0.1554   29.8164 H         1 <1>         0.0017 
     36 H13        -3.0630   -0.1846   30.8885 H         1 <1>         0.0435 
     37 H15        -1.0398    2.0670   30.3894 H         1 <1>         0.0568 
     38 H16        -3.3202    1.6577   28.5826 H         1 <1>         0.0689 
     39 H17        -3.1745    1.2724   26.8641 H         1 <1>         0.0689 
     40 H18        -3.1865    4.0506   32.8264 H         1 <1>         0.1365 
     41 O41        -3.9090    1.9417   33.8879 O.2       1 <1>        -0.3738 
     42 O42        -2.4910    0.2989   33.5627 O.3       1 <1>        -0.2980 
     43 H19        -1.7493    0.0207   33.0402 H         1 <1>         0.2515 
     44 H22        -1.9816    6.1488   31.8192 H         1 <1>         0.1231 
     45 H23        -1.1035    6.2964   29.2806 H         1 <1>         0.0707 
     46 H24        -2.5309    8.2666   27.6651 H         1 <1>         0.0347 
     47 H25        -4.2582    7.8231   27.5059 H         1 <1>         0.0347 
     48 H26        -2.9914    6.7093   26.9045 H         1 <1>         0.0347 
@<TRIPOS>BOND
     1    2    1 1    
     2    2    3 1    
     3    3    4 1    
     4    4    5 1    
     5    5    6 2    
     6    1    6 1    
     7    1    7 1    
     8    1    8 1    
     9    3    9 1    
    10    6   10 1    
    11   10   11 2    
    12   11   12 1    
    13    5   13 1    
    14   13   14 1    
    15   12   15 2    
    16   12   16 1    
    17   15   17 1    
    18   17   18 1    
    19   18   19 1    
    20   19   20 1    
    21   20   21 2    
    22   20   22 1    
    23   22   23 2    
    24   18   23 1    
    25   22   24 1    
    26    2   25 1    
    27    2   26 1    
    28    3   27 1    
    29    4   28 1    
    30    4   29 1    
    31    7   30 1    
    32    7   31 1    
    33    7   32 1    
    34    8   33 1    
    35    8   34 1    
    36    8   35 1    
    37   10   36 1    
    38   11   37 1    
    39   13   38 1    
    40   13   39 1    
    41   15   40 1    
    42   16   41 2    
    43   16   42 1    
    44   42   43 1    
    45   18   44 1    
    46   23   45 1    
    47   24   46 1    
    48   24   47 1    
    49   24   48 1    
@<TRIPOS>SUBSTRUCTURE
     1 ****        2 TEMP              0 ****  ****    0 ROOT 
@<TRIPOS>NORMAL
@<TRIPOS>FF_PBC
FORCE_FIELD_SETUP_FEATURE Force Field Setup information
v1.0  0 0.000000 0.000000 0.000000 0.000000 0.000000 0.000000 NONE 0 0 0 0 1 0 0 0 0 0 0 0 0
