#	Name:			PISM00497
#	Creating user name:	baoopengkun
#	Creation time:		Mon Dec 17 15:37:19 2018

#	Modifying user name:	baoopengkun
#	Modification time:	Mon Dec 17 15:39:50 2018

@<TRIPOS>MOLECULE
PISM00497
   37    38     1     1     0
SMALL
GAST_HUCK


@<TRIPOS>ATOM
      1 C1         34.6653    4.9287    9.9250 C.ar      1 <1>         0.0397 
      2 N2         34.8415    5.8676   10.8769 N.ar      1 <1>        -0.2404 
      3 C3         35.9696    5.9034   11.6139 C.ar      1 <1>         0.1093 
      4 N4         36.9409    4.9899   11.4162 N.ar      1 <1>        -0.2404 
      5 C5         36.8105    4.0336   10.4747 C.ar      1 <1>         0.0397 
      6 C6         35.6587    3.9744    9.6829 C.ar      1 <1>         0.0013 
      7 C7         35.4836    2.8972    8.5964 C.3       1 <1>         0.0622 
      8 O8         34.0709    2.6925    8.4160 O.3       1 <1>        -0.4445 
      9 C9         36.1121    3.4061    7.2561 C.3       1 <1>        -0.0555 
     10 C10        35.3501    4.6447    6.7004 C.3       1 <1>        -0.0720 
     11 C11        37.6213    3.7661    7.3864 C.3       1 <1>        -0.0720 
     12 C12        35.9925    1.5408    9.1432 C.ar      1 <1>        -0.0519 
     13 C13        35.5771    1.1693   10.4291 C.ar      1 <1>        -0.0519 
     14 C14        36.0381   -0.0066   11.0272 C.ar      1 <1>        -0.0039 
     15 C15        36.9024   -0.8500   10.3275 C.ar      1 <1>         0.1330 
     16 C16        37.2957   -0.5120    9.0313 C.ar      1 <1>        -0.0039 
     17 C17        36.8247    0.6617    8.4351 C.ar      1 <1>        -0.0519 
     18 O18        37.3679   -2.0218   10.9184 O.3       1 <1>        -0.2028 
     19 C19        36.5218   -3.1427   10.6310 C.3       1 <1>         0.5538 
     20 F20        35.2661   -2.9122   11.1015 F         1 <1>        -0.1387 
     21 F21        37.0339   -4.2434   11.2421 F         1 <1>        -0.1387 
     22 F22        36.4705   -3.3587    9.2886 F         1 <1>        -0.1387 
     23 H1         33.7447    4.9268    9.3521 H         1 <1>         0.1099 
     24 H2         36.0960    6.6707   12.3693 H         1 <1>         0.1280 
     25 H3         37.6114    3.3150   10.3444 H         1 <1>         0.1099 
     26 H4         33.8757    2.0259    7.7652 H         1 <1>         0.1876 
     27 H5         35.9881    2.6201    6.4930 H         1 <1>         0.0169 
     28 H6         35.4562    5.5098    7.3714 H         1 <1>         0.0221 
     29 H7         34.2779    4.4280    6.5773 H         1 <1>         0.0221 
     30 H8         35.7530    4.9284    5.7153 H         1 <1>         0.0221 
     31 H9         38.2050    2.9532    7.8396 H         1 <1>         0.0221 
     32 H10        37.7565    4.6681    8.0016 H         1 <1>         0.0221 
     33 H11        38.0431    3.9720    6.3903 H         1 <1>         0.0221 
     34 H12        34.8817    1.7984   10.9769 H         1 <1>         0.0782 
     35 H13        35.7267   -0.2684   12.0332 H         1 <1>         0.0635 
     36 H14        37.9688   -1.1681    8.4884 H         1 <1>         0.0635 
     37 H15        37.1205    0.8595    7.4131 H         1 <1>         0.0782 
@<TRIPOS>BOND
     1    2    1 ar   
     2    2    3 ar   
     3    3    4 ar   
     4    4    5 ar   
     5    6    5 ar   
     6    1    6 ar   
     7    6    7 1    
     8    7    8 1    
     9    7    9 1    
    10    9   10 1    
    11    9   11 1    
    12   19   20 1    
    13    7   12 1    
    14   12   13 ar   
    15   13   14 ar   
    16   14   15 ar   
    17   16   15 ar   
    18   17   16 ar   
    19   12   17 ar   
    20   15   18 1    
    21   18   19 1    
    22   19   21 1    
    23   19   22 1    
    24    1   23 1    
    25    3   24 1    
    26    5   25 1    
    27    8   26 1    
    28    9   27 1    
    29   10   28 1    
    30   10   29 1    
    31   10   30 1    
    32   11   31 1    
    33   11   32 1    
    34   11   33 1    
    35   13   34 1    
    36   14   35 1    
    37   16   36 1    
    38   17   37 1    
@<TRIPOS>SUBSTRUCTURE
     1 ****        2 TEMP              0 ****  ****    0 ROOT 
@<TRIPOS>NORMAL
@<TRIPOS>FF_PBC
FORCE_FIELD_SETUP_FEATURE Force Field Setup information
v1.0  0 0.000000 0.000000 0.000000 0.000000 0.000000 0.000000 NONE 0 0 0 0 1 0 0 0 0 0 0 0 0
