#	Name:			PISM00953
#	Creating user name:	baoopengkun
#	Creation time:		Thu Dec 13 10:15:04 2018

#	Modifying user name:	baoopengkun
#	Modification time:	Thu Dec 13 10:17:50 2018

@<TRIPOS>MOLECULE
PISM00953
   66    70     1     1     0
SMALL
GAST_HUCK


@<TRIPOS>ATOM
      1 C1        -14.6358   10.5920   -0.2272 C.ar      1 <1>        -0.0038 
      2 C2        -14.9155   10.1779    1.0773 C.ar      1 <1>         0.0716 
      3 C3        -14.9647    8.8143    1.3764 C.ar      1 <1>        -0.0183 
      4 C4        -14.7203    7.8709    0.3746 C.ar      1 <1>        -0.0348 
      5 C5        -14.4136    8.2818   -0.9280 C.ar      1 <1>         0.0199 
      6 C6        -14.3972    9.6493   -1.2311 C.ar      1 <1>         0.0705 
      7 Cl7       -15.2048   11.3643    2.3331 Cl        1 <1>        -0.0423 
      8 Cl8       -14.0841   10.2123   -2.8617 Cl        1 <1>        -0.0423 
      9 C9        -14.0974    7.2294   -2.0029 C.3       1 <1>         0.1911 
     10 C10       -15.3622    6.9151   -2.8366 C.3       1 <1>         0.1066 
     11 N11       -15.0882    5.9264   -3.8685 N.pl3     1 <1>        -0.1816 
     12 N12       -15.6037    4.6676   -3.9525 N.2       1 <1>        -0.1908 
     13 C13       -15.1846    4.0208   -4.9761 C.2       1 <1>         0.0618 
     14 N14       -14.3233    4.9997   -5.5804 N.2       1 <1>        -0.2870 
     15 C15       -14.3155    6.0561   -4.9029 C.2       1 <1>         0.1270 
     16 O16       -13.5716    6.0357   -1.4087 O.3       1 <1>        -0.3794 
     17 C17       -12.1671    6.2249   -1.1829 C.3       1 <1>         0.0749 
     18 C18       -11.8216    7.4901   -2.0083 C.3       1 <1>         0.0644 
     19 O19       -12.9877    7.6114   -2.8255 O.3       1 <1>        -0.3825 
     20 C20       -11.4357    4.9456   -1.6663 C.3       1 <1>         0.0020 
     21 C21       -11.8488    4.5446   -3.1079 C.3       1 <1>         0.0699 
     22 O22       -11.0624    3.4354   -3.5778 O.3       1 <1>        -0.3264 
     23 C23       -11.2463    2.2471   -2.8726 C.ar      1 <1>         0.0776 
     24 C24       -12.4092    1.4942   -3.0497 C.ar      1 <1>        -0.0443 
     25 C25       -12.5902    0.3073   -2.3336 C.ar      1 <1>        -0.0524 
     26 C26       -11.6194   -0.1350   -1.4255 C.ar      1 <1>         0.0295 
     27 C27       -10.4569    0.6280   -1.2553 C.ar      1 <1>        -0.0524 
     28 C28       -10.2637    1.8043   -1.9855 C.ar      1 <1>        -0.0443 
     29 N29       -11.8009   -1.2851   -0.7237 N.pl3     1 <1>        -0.3108 
     30 C30       -13.1229   -1.6473   -0.2134 C.3       1 <1>         0.0451 
     31 C31       -13.0051   -2.5272    1.0582 C.3       1 <1>         0.0531 
     32 N32       -12.1639   -3.6919    0.7760 N.am      1 <1>        -0.2697 
     33 C33       -11.1794   -3.6474   -0.3058 C.3       1 <1>         0.0531 
     34 C34       -10.6793   -2.1909   -0.4766 C.3       1 <1>         0.0451 
     35 C35       -12.2703   -4.8305    1.5129 C.2       1 <1>         0.1755 
     36 O36       -11.6052   -5.8193    1.2508 O.2       1 <1>        -0.3972 
     37 C37       -13.2157   -4.9436    2.6829 C.3       1 <1>         0.0258 
     38 H1        -14.6045   11.6508   -0.4613 H         1 <1>         0.0708 
     39 H2        -15.1928    8.4905    2.3871 H         1 <1>         0.0703 
     40 H3        -14.7709    6.8134    0.6159 H         1 <1>         0.0847 
     41 H4        -15.7369    7.8325   -3.3135 H         1 <1>         0.0592 
     42 H5        -16.1400    6.5184   -2.1672 H         1 <1>         0.0592 
     43 H6        -15.4181    3.0074   -5.2985 H         1 <1>         0.0863 
     44 H7        -13.7379    6.9436   -5.1588 H         1 <1>         0.1361 
     45 H8        -11.9705    6.3991   -0.1110 H         1 <1>         0.0609 
     46 H9        -10.9035    7.4136   -2.6098 H         1 <1>         0.0575 
     47 H10       -11.7413    8.3777   -1.3591 H         1 <1>         0.0575 
     48 H11       -11.6956    4.1225   -0.9813 H         1 <1>         0.0316 
     49 H12       -10.3460    5.1009   -1.6227 H         1 <1>         0.0316 
     50 H13       -11.6612    5.3739   -3.8052 H         1 <1>         0.0609 
     51 H14       -12.9227    4.3042   -3.1480 H         1 <1>         0.0609 
     52 H15       -13.1686    1.8315   -3.7475 H         1 <1>         0.0511 
     53 H16       -13.4931   -0.2690   -2.5004 H         1 <1>         0.0490 
     54 H17        -9.6935    0.3206   -0.5497 H         1 <1>         0.0490 
     55 H18        -9.3528    2.3812   -1.8651 H         1 <1>         0.0511 
     56 H19       -13.6534   -2.2212   -0.9903 H         1 <1>         0.0529 
     57 H20       -13.7111   -0.7454    0.0273 H         1 <1>         0.0529 
     58 H21       -14.0282   -2.8044    1.3577 H         1 <1>         0.0541 
     59 H22       -12.5431   -1.9358    1.8648 H         1 <1>         0.0541 
     60 H23       -11.6533   -3.9900   -1.2391 H         1 <1>         0.0541 
     61 H24       -10.3039   -4.2876   -0.1039 H         1 <1>         0.0541 
     62 H25        -9.9559   -2.1550   -1.3087 H         1 <1>         0.0529 
     63 H26       -10.1718   -1.8847    0.4523 H         1 <1>         0.0529 
     64 H27       -14.2495   -5.0352    2.3199 H         1 <1>         0.0467 
     65 H28       -13.1269   -4.0686    3.3427 H         1 <1>         0.0467 
     66 H29       -12.9792   -5.8405    3.2757 H         1 <1>         0.0467 
@<TRIPOS>BOND
     1    2    1 ar   
     2    2    3 ar   
     3    3    4 ar   
     4    4    5 ar   
     5    5    6 ar   
     6    1    6 ar   
     7    2    7 1    
     8    6    8 1    
     9    5    9 1    
    10    9   10 1    
    11   10   11 1    
    12   11   12 1    
    13   12   13 2    
    14   13   14 1    
    15   14   15 2    
    16   11   15 1    
    17    9   16 1    
    18   16   17 1    
    19   17   18 1    
    20   18   19 1    
    21    9   19 1    
    22   17   20 1    
    23   20   21 1    
    24   21   22 1    
    25   22   23 1    
    26   23   24 ar   
    27   24   25 ar   
    28   25   26 ar   
    29   26   27 ar   
    30   27   28 ar   
    31   23   28 ar   
    32   26   29 1    
    33   29   30 1    
    34   30   31 1    
    35   31   32 1    
    36   32   33 1    
    37   33   34 1    
    38   29   34 1    
    39   32   35 am   
    40   35   36 2    
    41   35   37 1    
    42    1   38 1    
    43    3   39 1    
    44    4   40 1    
    45   10   41 1    
    46   10   42 1    
    47   13   43 1    
    48   15   44 1    
    49   17   45 1    
    50   18   46 1    
    51   18   47 1    
    52   20   48 1    
    53   20   49 1    
    54   21   50 1    
    55   21   51 1    
    56   24   52 1    
    57   25   53 1    
    58   27   54 1    
    59   28   55 1    
    60   30   56 1    
    61   30   57 1    
    62   31   58 1    
    63   31   59 1    
    64   33   60 1    
    65   33   61 1    
    66   34   62 1    
    67   34   63 1    
    68   37   64 1    
    69   37   65 1    
    70   37   66 1    
@<TRIPOS>SUBSTRUCTURE
     1 ****        2 TEMP              0 ****  ****    0 ROOT 
@<TRIPOS>NORMAL
@<TRIPOS>FF_PBC
FORCE_FIELD_SETUP_FEATURE Force Field Setup information
v1.0  0 0.000000 0.000000 0.000000 0.000000 0.000000 0.000000 NONE 0 0 0 0 1 0 0 0 0 0 0 0 0
