#	Name:			PISM00026
#	Creating user name:	baoopengkun
#	Creation time:		Sat Nov 17 17:13:31 2018

#	Modifying user name:	baoopengkun
#	Modification time:	Sat Nov 17 17:16:55 2018

@<TRIPOS>MOLECULE
PISM00026
   30    31     1     2     0
SMALL
GAST_HUCK


@<TRIPOS>ATOM
      1 Cl1        -8.4104    0.5036    1.5495 Cl        1 <1>        -0.0602 
      2 C2         -7.5382   -0.3354    2.8139 C.2       1 <1>         0.0901 
      3 C3         -6.7630    0.3010    3.6940 C.2       1 <1>        -0.0652 
      4 C4         -6.1465   -0.6310    4.6477 C.2       1 <1>        -0.0724 
      5 C5         -6.4975   -1.9006    4.4220 C.2       1 <1>         0.0336 
      6 S6         -7.6053   -2.0986    3.0383 S.3       1 <1>        -0.0325 
      7 C7         -6.0425   -3.0593    5.2093 C.2       1 <1>         0.0382 
      8 N8         -5.2537   -2.8861    6.1932 N.2       1 <1>        -0.1874 
      9 N9         -4.7720   -3.9827    7.0060 N.am      1 <1>        -0.1640 
     10 C10        -3.9453   -3.7494    8.0475 C.2       1 <1>         0.2635 
     11 C11        -3.4812   -4.9346    8.8594 C.3       1 <1>         0.1858 
     12 C12        -4.6162   -5.2696    9.8370 C.ar      1 <1>         0.0049 
     13 C13        -4.8798   -4.4016   10.9032 C.ar      1 <1>        -0.0554 
     14 C14        -5.9030   -4.6848   11.8125 C.ar      1 <1>        -0.0680 
     15 C15        -6.6750   -5.8391   11.6578 C.ar      1 <1>        -0.0684 
     16 C16        -6.4216   -6.7066   10.5919 C.ar      1 <1>        -0.0680 
     17 C17        -5.3967   -6.4221    9.6845 C.ar      1 <1>        -0.0554 
     18 O18        -3.5653   -2.6312    8.3548 O.2       1 <1>        -0.3740 
     19 O19        -3.1793   -6.0501    7.9946 O.3       1 <1>        -0.3587 
     20 H1         -6.6048    1.3789    3.7065 H         1 <1>         0.0425 
     21 H2         -5.4780   -0.3126    5.4475 H         1 <1>         0.0399 
     22 H3         -6.3963   -4.0507    4.9283 H         1 <1>         0.0709 
     23 H4         -5.0380   -4.9294    6.8147 H         1 <1>         0.2550 
     24 H5         -2.5886   -4.6605    9.4476 H         1 <1>         0.1005 
     25 H6         -4.2894   -3.4989   11.0290 H         1 <1>         0.0562 
     26 H7         -6.0986   -4.0080   12.6388 H         1 <1>         0.0600 
     27 H8         -7.4697   -6.0613   12.3636 H         1 <1>         0.0561 
     28 H9         -7.0221   -7.6030   10.4691 H         1 <1>         0.0600 
     29 H10        -5.2169   -7.1065    8.8621 H         1 <1>         0.0562 
     30 H11        -2.4596   -5.8723    7.3951 H         1 <1>         0.2164 
@<TRIPOS>BOND
     1    2    1 1    
     2    2    3 2    
     3    3    4 1    
     4    4    5 2    
     5    5    6 1    
     6    2    6 1    
     7    5    7 1    
     8    7    8 2    
     9    8    9 1    
    10    9   10 am   
    11   10   11 1    
    12   11   12 1    
    13   12   13 ar   
    14   13   14 ar   
    15   14   15 ar   
    16   15   16 ar   
    17   16   17 ar   
    18   12   17 ar   
    19   10   18 2    
    20   11   19 1    
    21    3   20 1    
    22    4   21 1    
    23    7   22 1    
    24    9   23 1    
    25   11   24 1    
    26   13   25 1    
    27   14   26 1    
    28   15   27 1    
    29   16   28 1    
    30   17   29 1    
    31   19   30 1    
@<TRIPOS>SUBSTRUCTURE
     1 ****        2 TEMP              0 ****  ****    0 ROOT 
@<TRIPOS>NORMAL
@<TRIPOS>FF_PBC
FORCE_FIELD_SETUP_FEATURE Force Field Setup information
v1.0  0 0.000000 0.000000 0.000000 0.000000 0.000000 0.000000 NONE 0 0 0 0 1 0 0 0 0 0 0 0 0
@<TRIPOS>RENDERING_ATTRS
ANTIALIASED_LINES 
*
