#	Name:			PISM01210
#	Creating user name:	14062
#	Creation time:		Sun Apr 07 00:52:49 2019

#	Modifying user name:	14062
#	Modification time:	Sun Apr 07 00:54:12 2019

@<TRIPOS>MOLECULE
PISM01210
   41    43     3     1     0
SMALL
GAST_HUCK


@<TRIPOS>ATOM
      1 N1        -14.0297   11.1360   -1.9835 N.3       1 BENZYL     -0.2783 
      2 C1        -13.5383    9.9148   -2.6820 C.3       1 BENZYL      0.0520 
      3 C2        -14.2517    9.6781   -4.0252 C.ar      1 BENZYL      0.0022 
      4 C3        -14.8718    8.4584   -4.3192 C.ar      1 BENZYL     -0.0389 
      5 C4        -15.5330    8.2941   -5.5392 C.ar      1 BENZYL     -0.0404 
      6 C5        -15.5495    9.3478   -6.4566 C.ar      1 BENZYL      0.0042 
      7 N7        -14.9203   10.5048   -6.1689 N.ar      1 BENZYL     -0.3044 
      8 C7        -14.2929   10.6919   -4.9891 C.ar      1 BENZYL      0.0140 
      9 C9        -12.0155    9.9828   -2.9797 C.3       1 BENZYL     -0.0261 
     10 C10       -11.2116   10.2710   -1.6907 C.3       1 BENZYL     -0.0485 
     11 C11       -11.7249   11.5963   -1.0823 C.3       1 BENZYL     -0.0397 
     12 C12       -13.2368   11.4766   -0.7725 C.3       1 BENZYL      0.0032 
     13 C1        -15.4876   11.1142   -1.6749 C.3       2 BENZYL      0.0291 
     14 C2        -16.3536   11.2117   -2.9361 C.ar      2 BENZYL     -0.0416 
     15 C3        -16.3167   12.3758   -3.7086 C.ar      2 BENZYL     -0.0702 
     16 C4        -17.0149   12.4455   -4.9174 C.ar      2 BENZYL     -0.0434 
     17 C5        -17.7748   11.3585   -5.3722 C.ar      2 BENZYL      0.1240 
     18 C6        -17.8774   10.2297   -4.5468 C.ar      2 BENZYL     -0.0434 
     19 C7        -17.1787   10.1568   -3.3385 C.ar      2 BENZYL     -0.0702 
     20 N         -18.3947   11.3959   -6.5827 N.pl3     3 NO2         0.1171 
     21 O         -18.9378   10.3876   -6.9803 O.2       3 NO2        -0.1149 
     22 O         -18.3691   12.4330   -7.2097 O.2       3 NO2        -0.1149 
     23 H1        -13.7074    9.0525   -2.0153 H         1 BENZYL      0.0642 
     24 H2        -14.8475    7.6387   -3.6089 H         1 BENZYL      0.0678 
     25 H3        -16.0307    7.3583   -5.7728 H         1 BENZYL      0.0693 
     26 H4        -16.0680    9.2441   -7.4039 H         1 BENZYL      0.0767 
     27 H5        -13.8234   11.6497   -4.7958 H         1 BENZYL      0.0766 
     28 H6        -11.8075   10.7847   -3.7054 H         1 BENZYL      0.0304 
     29 H7        -11.6786    9.0299   -3.4214 H         1 BENZYL      0.0304 
     30 H8        -10.1371   10.3555   -1.9261 H         1 BENZYL      0.0268 
     31 H9        -11.3429    9.4469   -0.9701 H         1 BENZYL      0.0268 
     32 H10       -11.5643   12.4224   -1.7949 H         1 BENZYL      0.0278 
     33 H11       -11.1660   11.8235   -0.1587 H         1 BENZYL      0.0278 
     34 H12       -13.5627   12.4488   -0.3664 H         1 BENZYL      0.0430 
     35 H13       -13.3908   10.7109    0.0063 H         1 BENZYL      0.0430 
     36 H14       -15.7374   10.2119   -1.0948 H         2 BENZYL      0.0566 
     37 H15       -15.7783   11.9833   -1.0639 H         2 BENZYL      0.0566 
     38 H16       -15.7337   13.2278   -3.3728 H         2 BENZYL      0.0525 
     39 H17       -16.9498   13.3590   -5.4993 H         2 BENZYL      0.0501 
     40 H18       -18.5003    9.3890   -4.8340 H         2 BENZYL      0.0501 
     41 H19       -17.2767    9.2708   -2.7193 H         2 BENZYL      0.0525 
@<TRIPOS>BOND
     1    2    3 1    
     2    3    4 ar   
     3    3    8 ar   
     4    8    7 ar   
     5    7    6 ar   
     6    6    5 ar   
     7    5    4 ar   
     8    2    1 1    
     9    2    9 1    
    10    9   10 1    
    11   10   11 1    
    12   11   12 1    
    13    1   12 1    
    14   13   14 1    
    15   14   15 ar   
    16   14   19 ar   
    17   19   18 ar   
    18   18   17 ar   
    19   17   16 ar   
    20   16   15 ar   
    21    1   13 1    
    22   20   21 2    
    23   20   22 2    
    24   17   20 1    
    25    2   23 1    
    26    4   24 1    
    27    5   25 1    
    28    6   26 1    
    29    8   27 1    
    30    9   28 1    
    31    9   29 1    
    32   10   30 1    
    33   10   31 1    
    34   11   32 1    
    35   11   33 1    
    36   12   34 1    
    37   12   35 1    
    38   13   36 1    
    39   13   37 1    
    40   15   38 1    
    41   16   39 1    
    42   18   40 1    
    43   19   41 1    
@<TRIPOS>SUBSTRUCTURE
     1 BENZYL      2 PERM              0 ****  ****    1 ROOT 
     2 BENZYL     13 PERM              0 ****  ****    2  
     3 NO2        20 PERM              0 ****  ****    1  
@<TRIPOS>NORMAL
@<TRIPOS>FF_PBC
FORCE_FIELD_SETUP_FEATURE Force Field Setup information
v1.0  0 0.000000 0.000000 0.000000 0.000000 0.000000 0.000000 NONE 0 0 0 0 1 0 0 0 0 0 0 0 0
