#	Name:			PISM00893.1
#	Creating user name:	baoopengkun
#	Creation time:		Fri Dec 14 10:01:04 2018

#	Modifying user name:	baoopengkun
#	Modification time:	Fri Dec 14 10:03:05 2018

@<TRIPOS>MOLECULE
PISM00893.1
   30    32     1     1     0
SMALL
GAST_HUCK


@<TRIPOS>ATOM
      1 C1          5.7510   15.7191   -3.6360 C.ar      1 <1>        -0.0385 
      2 C2          5.3088   16.9878   -4.0230 C.ar      1 <1>        -0.0523 
      3 C3          6.0736   17.7563   -4.9049 C.ar      1 <1>        -0.0523 
      4 C4          7.2784   17.2519   -5.4023 C.ar      1 <1>        -0.0396 
      5 C5          7.7164   15.9811   -5.0159 C.ar      1 <1>         0.0444 
      6 C6          6.9601   15.2128   -4.1270 C.ar      1 <1>         0.0573 
      7 C7          7.4640   13.8487   -3.7047 C.2       1 <1>         0.2124 
      8 C8          8.6884   13.2766   -4.3358 C.2       1 <1>         0.1765 
      9 C9          9.3948   14.0369   -5.1798 C.2       1 <1>         0.0260 
     10 C10         9.0098   15.4074   -5.5440 C.2       1 <1>         0.1390 
     11 O11         6.8389   13.2739   -2.8284 O.2       1 <1>        -0.3459 
     12 O12         9.7319   16.0664   -6.2734 O.2       1 <1>        -0.3807 
     13 O13         9.1309   12.0224   -4.1001 O.3       1 <1>        -0.2479 
     14 C14         8.2731   11.1336   -3.3665 C.3       1 <1>         0.2419 
     15 C15         8.9309    9.7753   -3.4096 C.2       1 <1>        -0.0007 
     16 C16         8.1848    8.9069   -4.0893 C.2       1 <1>         0.0293 
     17 C17         7.0237    9.6951   -4.4824 C.2       1 <1>         0.2495 
     18 O18         7.0278   10.9577   -4.0763 O.3       1 <1>        -0.2302 
     19 C19         8.4630    7.4560   -4.3723 C.3       1 <1>        -0.0323 
     20 O20         6.1061    9.2303   -5.1364 O.2       1 <1>        -0.3691 
     21 H1          5.1486   15.1299   -2.9513 H         1 <1>         0.0682 
     22 H2          4.3706   17.3767   -3.6382 H         1 <1>         0.0661 
     23 H3          5.7324   18.7430   -5.2036 H         1 <1>         0.0662 
     24 H4          7.8720   17.8477   -6.0888 H         1 <1>         0.0680 
     25 H5         10.2991   13.6287   -5.6315 H         1 <1>         0.0486 
     26 H6          8.1359   11.4113   -2.3084 H         1 <1>         0.1213 
     27 H7          9.8909    9.5429   -2.9501 H         1 <1>         0.0706 
     28 H8          7.5256    6.9302   -4.6085 H         1 <1>         0.0347 
     29 H9          8.9278    6.9787   -3.4966 H         1 <1>         0.0347 
     30 H10         9.1448    7.3758   -5.2317 H         1 <1>         0.0347 
@<TRIPOS>BOND
     1    2    1 ar   
     2    2    3 ar   
     3    3    4 ar   
     4    4    5 ar   
     5    5    6 ar   
     6    1    6 ar   
     7    6    7 1    
     8    7    8 1    
     9    8    9 2    
    10    9   10 1    
    11    5   10 1    
    12    7   11 2    
    13   10   12 2    
    14    8   13 1    
    15   13   14 1    
    16   14   15 1    
    17   15   16 2    
    18   16   17 1    
    19   17   18 1    
    20   14   18 1    
    21   16   19 1    
    22   17   20 2    
    23    1   21 1    
    24    2   22 1    
    25    3   23 1    
    26    4   24 1    
    27    9   25 1    
    28   14   26 1    
    29   15   27 1    
    30   19   28 1    
    31   19   29 1    
    32   19   30 1    
@<TRIPOS>SUBSTRUCTURE
     1 ****        2 TEMP              0 ****  ****    0 ROOT 
@<TRIPOS>NORMAL
@<TRIPOS>FF_PBC
FORCE_FIELD_SETUP_FEATURE Force Field Setup information
v1.0  0 0.000000 0.000000 0.000000 0.000000 0.000000 0.000000 NONE 0 0 0 0 1 0 0 0 0 0 0 0 0
