#	Name:			PISM00218
#	Creating user name:	14062
#	Creation time:		Mon Apr 01 21:58:56 2019

#	Modifying user name:	14062
#	Modification time:	Mon Apr 01 21:59:18 2019

@<TRIPOS>MOLECULE
PISM00218
   37    39     1     2     0
SMALL
GAST_HUCK


@<TRIPOS>ATOM
      1 N1          2.3321    8.5648    2.0349 N.pl3     1 <1>        -0.2884 
      2 C2          1.2760    9.1913    1.4803 C.ar      1 <1>         0.0606 
      3 C3          0.7636    8.4087    0.4642 C.ar      1 <1>        -0.0189 
      4 C4         -0.3461    8.8033   -0.2842 C.ar      1 <1>        -0.0745 
      5 C5         -0.9133   10.0440    0.0329 C.ar      1 <1>        -0.0792 
      6 C6         -0.3888   10.8436    1.0608 C.ar      1 <1>        -0.0767 
      7 C7          1.6828    7.2127    0.4689 C.2       1 <1>        -0.0209 
      8 C8          2.5751    7.4170    1.4550 C.2       1 <1>         0.0197 
      9 C9          0.7227   10.4275    1.8060 C.ar      1 <1>        -0.0442 
     10 C10         1.5744    6.0444   -0.4819 C.3       1 <1>         0.0913 
     11 C11         0.5638    5.0686    0.0616 C.2       1 <1>         0.2417 
     12 O12        -0.3850    4.6843   -0.6010 O.2       1 <1>        -0.3685 
     13 O13         0.7719    4.6502    1.3097 O.3       1 <1>        -0.2916 
     14 C14         2.9434    5.3663   -0.7902 C.3       1 <1>         0.0476 
     15 C15         3.2323    4.1401    0.0461 C.2       1 <1>         0.1366 
     16 O16         3.7962    4.3017    1.1165 O.2       1 <1>        -0.3782 
     17 C17         2.8735    2.7363   -0.4057 C.ar      1 <1>         0.0328 
     18 C18         3.4661    1.6472    0.2466 C.ar      1 <1>        -0.0427 
     19 C19         3.2134    0.3371   -0.1717 C.ar      1 <1>        -0.0420 
     20 C20         2.3535    0.1014   -1.2476 C.ar      1 <1>         0.0453 
     21 C21         1.7430    1.1785   -1.8935 C.ar      1 <1>        -0.0420 
     22 C22         1.9817    2.4859   -1.4610 C.ar      1 <1>        -0.0427 
     23 Cl23        2.0386   -1.5391   -1.7750 Cl        1 <1>        -0.0663 
     24 H1          2.8829    8.9506    2.8171 H         1 <1>         0.2219 
     25 H2         -0.7449    8.1777   -1.0750 H         1 <1>         0.0540 
     26 H3         -1.7740   10.3934   -0.5284 H         1 <1>         0.0510 
     27 H4         -0.8525   11.7984    1.2831 H         1 <1>         0.0530 
     28 H5          3.3837    6.7441    1.7408 H         1 <1>         0.0804 
     29 H6          1.1360   11.0375    2.6012 H         1 <1>         0.0541 
     30 H7          1.1841    6.4690   -1.4220 H         1 <1>         0.0659 
     31 H8          0.1007    4.0361    1.5831 H         1 <1>         0.2540 
     32 H9          3.7583    6.0979   -0.6735 H         1 <1>         0.0527 
     33 H10         2.9831    5.0569   -1.8440 H         1 <1>         0.0527 
     34 H11         4.1354    1.8205    1.0816 H         1 <1>         0.0671 
     35 H12         3.6847   -0.4957    0.3374 H         1 <1>         0.0635 
     36 H13         1.0747    0.9908   -2.7293 H         1 <1>         0.0635 
     37 H14         1.4542    3.2939   -1.9571 H         1 <1>         0.0671 
@<TRIPOS>BOND
     1    8    1 1    
     2    1    2 1    
     3    2    3 ar   
     4    3    7 1    
     5    3    4 ar   
     6    4    5 ar   
     7    5    6 ar   
     8    7    8 2    
     9    6    9 ar   
    10    2    9 ar   
    11    7   10 1    
    12   10   11 1    
    13   11   12 2    
    14   11   13 1    
    15   10   14 1    
    16   14   15 1    
    17   15   16 2    
    18   15   17 1    
    19   17   18 ar   
    20   18   19 ar   
    21   19   20 ar   
    22   20   21 ar   
    23   21   22 ar   
    24   17   22 ar   
    25   20   23 1    
    26    1   24 1    
    27    4   25 1    
    28    5   26 1    
    29    6   27 1    
    30    8   28 1    
    31    9   29 1    
    32   10   30 1    
    33   13   31 1    
    34   14   32 1    
    35   14   33 1    
    36   18   34 1    
    37   19   35 1    
    38   21   36 1    
    39   22   37 1    
@<TRIPOS>SUBSTRUCTURE
     1 ****        7 TEMP              0 ****  ****    0 ROOT 
@<TRIPOS>NORMAL
@<TRIPOS>FF_PBC
FORCE_FIELD_SETUP_FEATURE Force Field Setup information
v1.0  0 0.000000 0.000000 0.000000 0.000000 0.000000 0.000000 NONE 0 0 0 0 1 0 0 0 0 0 0 0 0
@<TRIPOS>RENDERING_ATTRS
ANTIALIASED_LINES 
1,2,3,4,5,6,7,8,9,10,11,12,13,14,15,16,17,18,19,20,21,22,23
