#	Name:			PISM00817
#	Creating user name:	baoopengkun
#	Creation time:		Fri Nov 30 17:22:57 2018

#	Modifying user name:	baoopengkun
#	Modification time:	Fri Nov 30 17:26:14 2018

@<TRIPOS>MOLECULE
PISM00817
   34    35     1     2     0
SMALL
GAST_HUCK


@<TRIPOS>ATOM
      1 C1         -0.5375   -2.9008    4.7166 C.ar      1 <1>        -0.0642 
      2 C2         -1.0047   -4.1677    5.0773 C.ar      1 <1>        -0.0692 
      3 C3         -1.6462   -4.9701    4.1299 C.ar      1 <1>        -0.0685 
      4 C4         -1.8455   -4.4905    2.8324 C.ar      1 <1>        -0.0555 
      5 C5         -1.4071   -3.2111    2.4794 C.ar      1 <1>         0.0369 
      6 C6         -0.7112   -2.4303    3.4109 C.ar      1 <1>        -0.0149 
      7 H7         -2.3462   -5.1108    2.0961 H         1 <1>         0.0604 
      8 C8         -0.1400   -1.0772    3.0459 C.2       1 <1>         0.0840 
      9 C9         -0.4241    0.1245    3.8629 C.2       1 <1>         0.2399 
     10 O10        -1.6496    0.4548    4.3109 O.3       1 <1>        -0.2864 
     11 C11        -2.7551   -0.3663    3.8887 C.3       1 <1>         0.0638 
     12 O12         0.5041    0.8711    4.1233 O.2       1 <1>        -0.3769 
     13 C13         0.6674   -0.9646    1.9840 C.2       1 <1>         0.1068 
     14 O14         0.9729   -2.0556    1.2667 O.3       1 <1>        -0.2488 
     15 C15         1.7877   -1.7849    0.1164 C.3       1 <1>         0.2460 
     16 C16         1.8404   -3.0599   -0.6883 C.2       1 <1>         0.0005 
     17 C17         1.2175   -2.9019   -1.8545 C.2       1 <1>         0.0294 
     18 C18         0.7845   -1.5095   -1.8241 C.2       1 <1>         0.2497 
     19 O19         1.1204   -0.8306   -0.7346 O.3       1 <1>        -0.2292 
     20 C20         1.0206   -3.9115   -2.9520 C.3       1 <1>        -0.0323 
     21 O21         0.1643   -0.9941   -2.7379 O.2       1 <1>        -0.3691 
     22 H1         -0.0349   -2.2824    5.4541 H         1 <1>         0.0554 
     23 H2         -0.8679   -4.5290    6.0922 H         1 <1>         0.0599 
     24 H24        -1.9907   -5.9633    4.4018 H         1 <1>         0.0557 
     25 Cl25       -1.7598   -2.6024    0.8724 Cl        1 <1>        -0.0770 
     26 H5         -3.6688    0.1628    4.1966 H         1 <1>         0.0574 
     27 H6         -2.7663   -1.3442    4.3900 H         1 <1>         0.0574 
     28 H7         -2.7909   -0.4920    2.7951 H         1 <1>         0.0574 
     29 H8          1.0570    0.0277    1.7396 H         1 <1>         0.1339 
     30 H9          2.7991   -1.4370    0.3863 H         1 <1>         0.1227 
     31 H10         2.3125   -3.9821   -0.3518 H         1 <1>         0.0707 
     32 H11         1.9210   -4.5338   -3.0647 H         1 <1>         0.0347 
     33 H12         0.8198   -3.3996   -3.9052 H         1 <1>         0.0347 
     34 H13         0.1643   -4.5562   -2.7046 H         1 <1>         0.0347 
@<TRIPOS>BOND
     1    2    1 ar   
     2    2    3 ar   
     3    3    4 ar   
     4    4    5 ar   
     5    5    6 ar   
     6    1    6 ar   
     7    4    7 1    
     8    6    8 1    
     9    8    9 1    
    10    9   10 1    
    11   10   11 1    
    12    9   12 2    
    13    8   13 2    
    14   13   14 1    
    15   14   15 1    
    16   15   16 1    
    17   16   17 2    
    18   17   18 1    
    19   18   19 1    
    20   15   19 1    
    21   17   20 1    
    22   18   21 2    
    23    1   22 1    
    24    2   23 1    
    25    3   24 1    
    26    5   25 1    
    27   11   26 1    
    28   11   27 1    
    29   11   28 1    
    30   13   29 1    
    31   15   30 1    
    32   16   31 1    
    33   20   32 1    
    34   20   33 1    
    35   20   34 1    
@<TRIPOS>SUBSTRUCTURE
     1 ****        2 TEMP              0 ****  ****    0 ROOT 
@<TRIPOS>NORMAL
@<TRIPOS>FF_PBC
FORCE_FIELD_SETUP_FEATURE Force Field Setup information
v1.0  0 0.000000 0.000000 0.000000 0.000000 0.000000 0.000000 NONE 0 0 0 0 1 0 0 0 0 0 0 0 0
@<TRIPOS>RENDERING_ATTRS
ANTIALIASED_LINES 
*
