#	Name:			PISM00502
#	Creating user name:	malab
#	Creation time:		Thu Apr 04 12:04:48 2019

#	Modifying user name:	malab
#	Modification time:	Thu Apr 04 12:08:10 2019

@<TRIPOS>MOLECULE
PISM00502
   21    19     1     1     0
SMALL
GAST_HUCK


@<TRIPOS>ATOM
      1 Br1        20.6497    5.4661    2.3196 Br        1 <1>        -0.0863 
      2 C2         20.9140    7.1371    1.3659 C.3       1 <1>         0.0435 
      3 C3         22.2762    7.0967    0.6166 C.3       1 <1>        -0.0211 
      4 N4         22.6549    8.2806   -0.2253 N.4       1 <1>         0.2375 
      5 C5         21.6859    8.4885   -1.3447 C.3       1 <1>        -0.0418 
      6 C6         22.7092    9.5259    0.5989 C.3       1 <1>        -0.0418 
      7 C7         24.0010    8.0092   -0.8232 C.3       1 <1>        -0.0418 
      8 Br8        25.8368   10.3440    0.4591 Br        0 <0>        -1.0000 
      9 H1         20.0611    7.2447    0.6806 H         1 <1>         0.0434 
     10 H2         20.8749    7.9374    2.1199 H         1 <1>         0.0434 
     11 H3         22.2576    6.1876   -0.0084 H         1 <1>         0.0823 
     12 H4         23.0410    6.9324    1.3954 H         1 <1>         0.0823 
     13 H5         22.0232    9.2904   -2.0220 H         1 <1>         0.0778 
     14 H6         20.6879    8.7824   -0.9868 H         1 <1>         0.0778 
     15 H7         21.5655    7.5761   -1.9502 H         1 <1>         0.0778 
     16 H8         23.3778    9.4043    1.4657 H         1 <1>         0.0778 
     17 H9         21.7225    9.8214    0.9831 H         1 <1>         0.0778 
     18 H10        23.0782   10.3806    0.0096 H         1 <1>         0.0778 
     19 H11        23.9921    7.1218   -1.4753 H         1 <1>         0.0778 
     20 H12        24.7608    7.8295   -0.0460 H         1 <1>         0.0778 
     21 H13        24.3583    8.8519   -1.4370 H         1 <1>         0.0778 
@<TRIPOS>BOND
     1    2    1 1    
     2    2    3 1    
     3    3    4 1    
     4    4    5 1    
     5    4    6 1    
     6    4    7 1    
     7    2    9 1    
     8    2   10 1    
     9    3   11 1    
    10    3   12 1    
    11    5   13 1    
    12    5   14 1    
    13    5   15 1    
    14    6   16 1    
    15    6   17 1    
    16    6   18 1    
    17    7   19 1    
    18    7   20 1    
    19    7   21 1    
@<TRIPOS>SUBSTRUCTURE
     1 ****        2 TEMP              0 ****  ****    0 ROOT 
@<TRIPOS>NORMAL
@<TRIPOS>FF_PBC
FORCE_FIELD_SETUP_FEATURE Force Field Setup information
v1.0  0 0.000000 0.000000 0.000000 0.000000 0.000000 0.000000 NONE 0 0 0 0 1 0 0 0 0 0 0 0 0
0 0 0 0
