#	Name:			PISM00637
#	Creating user name:	baoopengkun
#	Creation time:		Fri Jan 04 21:56:02 2019

#	Modifying user name:	baoopengkun
#	Modification time:	Fri Jan 04 22:00:49 2019

@<TRIPOS>MOLECULE
PISM00637
   89    93     1     1     0
SMALL
GAST_HUCK


@<TRIPOS>ATOM
      1 C1          3.2499   -0.7638    9.6046 C.3       1 <1>        -0.0159 
      2 C2          2.6509    0.1508    8.5054 C.3       1 <1>         0.0889 
      3 C3          3.6429    0.3831    7.3348 C.3       1 <1>         0.0905 
      4 C4          4.8356   -0.6056    7.3406 C.3       1 <1>        -0.0024 
      5 C5          4.2654   -2.0184    7.6248 C.3       1 <1>         0.0682 
      6 C6          3.7146   -2.1759    9.0847 C.3       1 <1>        -0.0055 
      7 C7          4.7418   -2.8426   10.1013 C.3       1 <1>        -0.0276 
      8 C8          5.0296   -4.4000   10.0100 C.3       1 <1>        -0.0063 
      9 C9          5.3595   -5.0226    8.6027 C.3       1 <1>         0.0801 
     10 O10         4.7235   -4.3158    7.5387 O.3       1 <1>        -0.2763 
     11 C11         5.2576   -3.1071    7.4002 C.2       1 <1>         0.2374 
     12 O12         6.4384   -2.9130    7.1610 O.2       1 <1>        -0.3701 
     13 C13         6.0974   -2.1370   10.4118 C.3       1 <1>        -0.0487 
     14 C14         6.5816   -2.5094   11.8591 C.3       1 <1>        -0.0468 
     15 C15         6.3344   -4.0044   12.2819 C.3       1 <1>        -0.0257 
     16 C16         6.2103   -4.8020   10.9593 C.3       1 <1>        -0.0298 
     17 C17         7.5699   -4.7440   12.9148 C.3       1 <1>        -0.0304 
     18 C18         7.2788   -6.2478   12.5908 C.3       1 <1>        -0.0491 
     19 C19         6.2906   -6.2821   11.3873 C.3       1 <1>        -0.0491 
     20 O20         2.4722    1.4596    9.0716 O.3       1 <1>        -0.3434 
     21 C21         2.9562    2.4264    8.1313 C.3       1 <1>         0.1654 
     22 O22         4.0622    1.7334    7.5386 O.3       1 <1>        -0.3432 
     23 C23         3.4795    3.6730    8.8806 C.3       1 <1>        -0.0108 
     24 C24         1.8569    2.8112    7.1059 C.3       1 <1>        -0.0108 
     25 C25         2.4249   -3.0676    9.0446 C.3       1 <1>        -0.0568 
     26 C26         5.0844   -4.2001   13.2125 C.3       1 <1>        -0.0590 
     27 C27         7.9227   -4.4711   14.4186 C.3       1 <1>        -0.0120 
     28 C28         9.1664   -5.2816   14.9400 C.3       1 <1>         0.0841 
     29 C29        10.5041   -5.0418   14.1657 C.3       1 <1>         0.0841 
     30 C30        11.8108   -5.2971   14.9979 C.3       1 <1>        -0.0130 
     31 C31        13.1010   -5.1569   14.1099 C.3       1 <1>        -0.0417 
     32 C32        13.1466   -3.8102   13.3260 C.3       1 <1>        -0.0623 
     33 C33        14.4153   -5.2886   14.9385 C.3       1 <1>        -0.0623 
     34 C34        11.7854   -6.6690   15.7408 C.3       1 <1>        -0.0597 
     35 O35        10.5379   -5.8029   12.9482 O.3       1 <1>        -0.3890 
     36 O36         8.9072   -6.7004   14.9328 O.3       1 <1>        -0.3890 
     37 C37         8.0918   -2.9502   14.7270 C.3       1 <1>        -0.0597 
     38 H1          2.5141   -0.8599   10.4193 H         1 <1>         0.0298 
     39 H2          4.0766   -0.1767   10.0188 H         1 <1>         0.0298 
     40 H3          1.6813   -0.2254    8.1417 H         1 <1>         0.0623 
     41 H4          3.1136    0.3106    6.3691 H         1 <1>         0.0624 
     42 H5          5.5775   -0.3231    8.1004 H         1 <1>         0.0319 
     43 H6          5.3374   -0.5722    6.3594 H         1 <1>         0.0319 
     44 H7          3.4718   -2.1888    6.8786 H         1 <1>         0.0560 
     45 H8          4.1881   -2.6585   11.0302 H         1 <1>         0.0311 
     46 H9          4.1127   -4.8937   10.3734 H         1 <1>         0.0332 
     47 H10         4.9743   -6.0546    8.5706 H         1 <1>         0.0616 
     48 H11         6.4346   -5.0934    8.3660 H         1 <1>         0.0616 
     49 H12         6.0672   -1.0413   10.3685 H         1 <1>         0.0268 
     50 H13         6.8345   -2.4387    9.6523 H         1 <1>         0.0268 
     51 H14         6.0636   -1.8459   12.5696 H         1 <1>         0.0271 
     52 H15         7.6523   -2.2578   11.9031 H         1 <1>         0.0271 
     53 H16         7.1566   -4.6101   10.4234 H         1 <1>         0.0310 
     54 H17         8.4649   -4.4488   12.3425 H         1 <1>         0.0310 
     55 H18         6.8180   -6.7712   13.4424 H         1 <1>         0.0268 
     56 H19         8.2026   -6.7870   12.3333 H         1 <1>         0.0268 
     57 H20         5.2937   -6.6357   11.6971 H         1 <1>         0.0268 
     58 H21         6.6399   -6.9312   10.5666 H         1 <1>         0.0268 
     59 H22         4.2554    3.3653    9.5978 H         1 <1>         0.0281 
     60 H23         2.6618    4.1613    9.4316 H         1 <1>         0.0281 
     61 H24         3.9171    4.3879    8.1679 H         1 <1>         0.0281 
     62 H25         2.2929    3.4475    6.3215 H         1 <1>         0.0281 
     63 H26         1.0572    3.3692    7.6153 H         1 <1>         0.0281 
     64 H27         1.4020    1.9304    6.6326 H         1 <1>         0.0281 
     65 H28         1.6334   -2.6019    8.4402 H         1 <1>         0.0237 
     66 H29         2.0179   -3.2191   10.0564 H         1 <1>         0.0237 
     67 H30         2.6064   -4.0614    8.6158 H         1 <1>         0.0237 
     68 H31         4.1217   -4.0623   12.7115 H         1 <1>         0.0235 
     69 H32         5.1118   -3.4952   14.0540 H         1 <1>         0.0235 
     70 H33         5.0405   -5.2059   13.6491 H         1 <1>         0.0235 
     71 H34         7.0716   -4.8074   15.0330 H         1 <1>         0.0327 
     72 H35         9.3399   -4.9709   15.9856 H         1 <1>         0.0622 
     73 H36        10.5176   -3.9847   13.8755 H         1 <1>         0.0622 
     74 H37        11.8528   -4.5184   15.7794 H         1 <1>         0.0326 
     75 H38        13.1060   -5.9685   13.3617 H         1 <1>         0.0299 
     76 H39        13.0114   -2.9637   14.0165 H         1 <1>         0.0232 
     77 H40        12.3736   -3.7660   12.5445 H         1 <1>         0.0232 
     78 H41        14.1110   -3.6832   12.8104 H         1 <1>         0.0232 
     79 H42        14.5597   -6.3077   15.3243 H         1 <1>         0.0232 
     80 H43        14.4055   -4.5830   15.7831 H         1 <1>         0.0232 
     81 H44        15.2978   -5.0689   14.3179 H         1 <1>         0.0232 
     82 H45        11.8313   -7.5026   15.0248 H         1 <1>         0.0233 
     83 H46        10.8859   -6.7900   16.3584 H         1 <1>         0.0233 
     84 H47        12.6281   -6.7643   16.4389 H         1 <1>         0.0233 
     85 H48        10.4829   -6.7346   13.1329 H         1 <1>         0.2099 
     86 H49         8.1805   -6.9593   15.4912 H         1 <1>         0.2099 
     87 H50         8.4364   -2.7938   15.7606 H         1 <1>         0.0233 
     88 H51         7.1390   -2.4147   14.6345 H         1 <1>         0.0233 
     89 H52         8.8108   -2.4658   14.0529 H         1 <1>         0.0233 
@<TRIPOS>BOND
     1    2    1 1    
     2    2    3 1    
     3    3    4 1    
     4    4    5 1    
     5    5    6 1    
     6    1    6 1    
     7    6    7 1    
     8    7    8 1    
     9    8    9 1    
    10    9   10 1    
    11   10   11 1    
    12   11   12 2    
    13    5   11 1    
    14    7   13 1    
    15   13   14 1    
    16   14   15 1    
    17   15   16 1    
    18    8   16 1    
    19   15   17 1    
    20   17   18 1    
    21   18   19 1    
    22   16   19 1    
    23    2   20 1    
    24   20   21 1    
    25   21   22 1    
    26    3   22 1    
    27   21   23 1    
    28   21   24 1    
    29    6   25 1    
    30   15   26 1    
    31   17   27 1    
    32   27   28 1    
    33   28   29 1    
    34   29   30 1    
    35   30   31 1    
    36   31   32 1    
    37   31   33 1    
    38   30   34 1    
    39   29   35 1    
    40   28   36 1    
    41   27   37 1    
    42    1   38 1    
    43    1   39 1    
    44    2   40 1    
    45    3   41 1    
    46    4   42 1    
    47    4   43 1    
    48    5   44 1    
    49    7   45 1    
    50    8   46 1    
    51    9   47 1    
    52    9   48 1    
    53   13   49 1    
    54   13   50 1    
    55   14   51 1    
    56   14   52 1    
    57   16   53 1    
    58   17   54 1    
    59   18   55 1    
    60   18   56 1    
    61   19   57 1    
    62   19   58 1    
    63   23   59 1    
    64   23   60 1    
    65   23   61 1    
    66   24   62 1    
    67   24   63 1    
    68   24   64 1    
    69   25   65 1    
    70   25   66 1    
    71   25   67 1    
    72   26   68 1    
    73   26   69 1    
    74   26   70 1    
    75   27   71 1    
    76   28   72 1    
    77   29   73 1    
    78   30   74 1    
    79   31   75 1    
    80   32   76 1    
    81   32   77 1    
    82   32   78 1    
    83   33   79 1    
    84   33   80 1    
    85   33   81 1    
    86   34   82 1    
    87   34   83 1    
    88   34   84 1    
    89   35   85 1    
    90   36   86 1    
    91   37   87 1    
    92   37   88 1    
    93   37   89 1    
@<TRIPOS>SUBSTRUCTURE
     1 ****        2 TEMP              0 ****  ****    0 ROOT 
@<TRIPOS>NORMAL
@<TRIPOS>FF_PBC
FORCE_FIELD_SETUP_FEATURE Force Field Setup information
v1.0  0 0.000000 0.000000 0.000000 0.000000 0.000000 0.000000 NONE 0 0 0 0 1 0 0 0 0 0 0 0 0
