#	Name:			PISM00876
#	Creating user name:	baoopengkun
#	Creation time:		Thu Dec 13 23:15:37 2018

#	Modifying user name:	baoopengkun
#	Modification time:	Fri Dec 14 00:04:51 2018

@<TRIPOS>MOLECULE
PISM00876
   25    26     1     1     0
SMALL
GAST_HUCK


@<TRIPOS>ATOM
      1 H2          3.8950    0.8920   -1.6130 H         1 <1>         0.0578 
      2 C2          2.8352    2.5660   -2.4692 C.ar      1 <1>        -0.0325 
      3 C3          2.3389    3.1412   -3.6431 C.ar      1 <1>         0.0869 
      4 C4          2.5194    2.4934   -4.8688 C.ar      1 <1>        -0.0253 
      5 C5          3.1974    1.2720   -4.9220 C.ar      1 <1>         0.0531 
      6 C6          3.7037    0.7030   -3.7493 C.ar      1 <1>         0.1189 
      7 C7          3.5142    1.3450   -2.5225 C.ar      1 <1>        -0.0178 
      8 Br8         3.4243    0.4088   -6.5459 Br        1 <1>        -0.0550 
      9 O9          4.3969   -0.5042   -3.8049 O.3       1 <1>        -0.2616 
     10 C10         5.8186   -0.3264   -3.8396 C.3       1 <1>         0.2387 
     11 O11         6.1792    0.5222   -4.9482 O.3       1 <1>        -0.2308 
     12 C12         6.8568   -0.2588   -5.7795 C.2       1 <1>         0.2495 
     13 C13         7.0633   -1.6295   -5.3250 C.2       1 <1>         0.0292 
     14 C14         6.4435   -1.6644   -4.1470 C.2       1 <1>        -0.0014 
     15 C15         7.7991   -2.7420   -6.0206 C.3       1 <1>        -0.0323 
     16 O16         7.2820    0.1524   -6.8452 O.2       1 <1>        -0.3691 
     17 H1          2.6929    3.0671   -1.5163 H         1 <1>         0.0714 
     18 C18         1.6409    4.4007   -3.5895 C.1       1 <1>         0.0898 
     19 H3          2.1328    2.9384   -5.7801 H         1 <1>         0.0722 
     20 H4          6.2076    0.0908   -2.8962 H         1 <1>         0.1205 
     21 H5          6.3852   -2.5368   -3.4975 H         1 <1>         0.0706 
     22 H6          7.1516   -3.6283   -6.0953 H         1 <1>         0.0347 
     23 H7          8.7024   -3.0014   -5.4488 H         1 <1>         0.0347 
     24 H8          8.0945   -2.4301   -7.0337 H         1 <1>         0.0347 
     25 N25         1.0801    5.4123   -3.5463 N.1       1 <1>        -0.3371 
@<TRIPOS>BOND
     1    7    1 1    
     2    3    2 ar   
     3    4    3 ar   
     4    5    4 ar   
     5    6    5 ar   
     6    6    7 ar   
     7    2    7 ar   
     8    5    8 1    
     9    6    9 1    
    10    9   10 1    
    11   10   11 1    
    12   11   12 1    
    13   12   13 1    
    14   13   14 2    
    15   10   14 1    
    16   13   15 1    
    17   12   16 2    
    18    2   17 1    
    19    3   18 1    
    20    4   19 1    
    21   10   20 1    
    22   14   21 1    
    23   15   22 1    
    24   15   23 1    
    25   15   24 1    
    26   18   25 3    
@<TRIPOS>SUBSTRUCTURE
     1 ****        2 TEMP              0 ****  ****    0 ROOT 
@<TRIPOS>NORMAL
@<TRIPOS>FF_PBC
FORCE_FIELD_SETUP_FEATURE Force Field Setup information
v1.0  0 0.000000 0.000000 0.000000 0.000000 0.000000 0.000000 NONE 0 0 0 0 1 0 0 0 0 0 0 0 0
