#	Name:			PISM00678
#	Creating user name:	baoopengkun
#	Creation time:		Sat Jan 12 23:32:09 2019

#	Modifying user name:	baoopengkun
#	Modification time:	Sat Jan 12 23:33:11 2019

@<TRIPOS>MOLECULE
PISM00678
   40    41     1     1     0
SMALL
GAST_HUCK


@<TRIPOS>ATOM
      1 Cl1        -2.5283  -18.2416   -0.3237 Cl        1 <1>        -0.0771 
      2 C2         -2.6743  -16.5832   -0.8690 C.ar      1 <1>         0.0330 
      3 C3         -3.6297  -16.2434   -1.8302 C.ar      1 <1>        -0.0546 
      4 C4         -3.7477  -14.9188   -2.2620 C.ar      1 <1>        -0.0596 
      5 C5         -2.8965  -13.9289   -1.7563 C.ar      1 <1>        -0.0396 
      6 C6         -1.9373  -14.2782   -0.7983 C.ar      1 <1>        -0.0596 
      7 C7         -1.8362  -15.5965   -0.3449 C.ar      1 <1>        -0.0546 
      8 C8         -3.0135  -12.4773   -2.2479 C.3       1 <1>         0.0165 
      9 C9         -3.9834  -11.6776   -1.3346 C.3       1 <1>         0.1222 
     10 C10        -4.0994  -10.1644   -1.7186 C.3       1 <1>         0.0945 
     11 O11        -4.3081   -9.9867   -3.1363 O.3       1 <1>        -0.3879 
     12 C12        -5.2432   -9.3593   -1.0025 C.3       1 <1>        -0.0085 
     13 C13        -6.6574   -9.8361   -1.4555 C.3       1 <1>        -0.0576 
     14 C14        -5.0987   -7.8541   -1.3930 C.3       1 <1>        -0.0576 
     15 C15        -5.1554   -9.4575    0.5489 C.3       1 <1>        -0.0576 
     16 N16        -3.4925  -11.8641    0.0236 N.pl3     1 <1>        -0.1706 
     17 C17        -2.4883  -11.2726    0.5770 C.2       1 <1>         0.1284 
     18 N18        -2.4437  -11.7583    1.7401 N.2       1 <1>        -0.2870 
     19 C19        -3.4387  -12.7497    2.0931 C.2       1 <1>         0.0618 
     20 N20        -4.0099  -12.7072    0.9470 N.2       1 <1>        -0.1897 
     21 H1         -4.2798  -17.0097   -2.2401 H         1 <1>         0.0606 
     22 H2         -4.5076  -14.6655   -2.9943 H         1 <1>         0.0557 
     23 H3         -1.2652  -13.5276   -0.3977 H         1 <1>         0.0557 
     24 H4         -1.1073  -15.8574    0.4150 H         1 <1>         0.0606 
     25 H5         -4.9655  -12.1648   -1.4146 H         1 <1>         0.0729 
     26 H6         -3.1420   -9.6855   -1.4492 H         1 <1>         0.0633 
     27 H7         -3.5673  -10.2105   -3.6890 H         1 <1>         0.2099 
     28 H8         -6.8692  -10.8640   -1.1305 H         1 <1>         0.0236 
     29 H9         -7.4365   -9.1911   -1.0208 H         1 <1>         0.0236 
     30 H10        -6.7563   -9.7916   -2.5508 H         1 <1>         0.0236 
     31 H11        -5.8857   -7.2442   -0.9230 H         1 <1>         0.0236 
     32 H12        -5.1762   -7.7179   -2.4825 H         1 <1>         0.0236 
     33 H13        -4.1256   -7.4569   -1.0656 H         1 <1>         0.0236 
     34 H14        -5.3658  -10.4783    0.8958 H         1 <1>         0.0236 
     35 H15        -5.8970   -8.7955    1.0214 H         1 <1>         0.0236 
     36 H16        -4.1588   -9.1558    0.9028 H         1 <1>         0.0236 
     37 H17        -1.6686  -10.8442    1.1541 H         1 <1>         0.1361 
     38 H18        -2.8139  -12.6307    2.9782 H         1 <1>         0.0864 
     39 H19        -3.3730  -12.4997   -3.2878 H         1 <1>         0.0459 
     40 H20        -2.0205  -12.0027   -2.2411 H         1 <1>         0.0459 
@<TRIPOS>BOND
     1    2    1 1    
     2    2    3 ar   
     3    3    4 ar   
     4    4    5 ar   
     5    5    6 ar   
     6    6    7 ar   
     7    2    7 ar   
     8    5    8 1    
     9    8    9 1    
    10    9   10 1    
    11   10   11 1    
    12   10   12 1    
    13   12   13 1    
    14   12   14 1    
    15   12   15 1    
    16    9   16 1    
    17   16   17 1    
    18   17   18 2    
    19   18   19 1    
    20   19   20 2    
    21   16   20 1    
    22    3   21 1    
    23    4   22 1    
    24    6   23 1    
    25    7   24 1    
    26    9   25 1    
    27   10   26 1    
    28   11   27 1    
    29   13   28 1    
    30   13   29 1    
    31   13   30 1    
    32   14   31 1    
    33   14   32 1    
    34   14   33 1    
    35   15   34 1    
    36   15   35 1    
    37   15   36 1    
    38   17   37 1    
    39   19   38 1    
    40    8   39 1    
    41    8   40 1    
@<TRIPOS>SUBSTRUCTURE
     1 ****        2 TEMP              0 ****  ****    0 ROOT 
@<TRIPOS>NORMAL
@<TRIPOS>FF_PBC
FORCE_FIELD_SETUP_FEATURE Force Field Setup information
v1.0  0 0.000000 0.000000 0.000000 0.000000 0.000000 0.000000 NONE 0 0 0 0 1 0 0 0 0 0 0 0 0
