#	Name:			PISM00741
#	Creating user name:	baoopengkun
#	Creation time:		Sun Jan 20 22:20:31 2019

#	Modifying user name:	baoopengkun
#	Modification time:	Sun Jan 20 22:25:24 2019

@<TRIPOS>MOLECULE
PISM00741
   91    94     1     1     0
SMALL
GAST_HUCK


@<TRIPOS>ATOM
      1 C1          2.4696    3.2379    4.4892 C.3       1 <1>        -0.0163 
      2 C2          3.0164    2.3044    5.6061 C.3       1 <1>         0.0821 
      3 C3          4.2393    2.9502    6.3237 C.3       1 <1>         0.0866 
      4 C4          3.8222    4.3281    6.9055 C.3       1 <1>        -0.0026 
      5 C5          3.3226    5.2457    5.7506 C.3       1 <1>         0.0682 
      6 C6          2.0794    4.6687    4.9887 C.3       1 <1>        -0.0055 
      7 C7          1.6766    5.6274    3.7940 C.3       1 <1>        -0.0276 
      8 C8          2.8853    6.3421    3.1080 C.3       1 <1>        -0.0063 
      9 C9          3.4357    7.4979    4.0128 C.3       1 <1>         0.0801 
     10 O10         2.8982    7.6612    5.3468 O.3       1 <1>        -0.2763 
     11 C11         3.0084    6.6432    6.2175 C.2       1 <1>         0.2374 
     12 O12         2.8254    6.8651    7.4008 O.2       1 <1>        -0.3701 
     13 C13         0.7463    5.0007    2.7109 C.3       1 <1>        -0.0487 
     14 C14         0.1395    6.0786    1.7492 C.3       1 <1>        -0.0468 
     15 C15         1.1162    7.2412    1.3470 C.3       1 <1>        -0.0257 
     16 C16         2.5579    6.7342    1.6234 C.3       1 <1>        -0.0298 
     17 C17         3.5108    7.6892    0.8591 C.3       1 <1>        -0.0491 
     18 C18         2.6382    8.2058   -0.3235 C.3       1 <1>        -0.0491 
     19 C19         1.2289    7.5406   -0.1973 C.3       1 <1>        -0.0303 
     20 O20         3.3018    1.0151    5.0253 O.3       1 <1>        -0.3892 
     21 O21         5.3707    3.2416    5.4708 O.3       1 <1>        -0.3771 
     22 C22         1.2469   11.0579   -4.5493 C.3       1 <1>        -0.0417 
     23 C23         0.8428    4.5748    5.9535 C.3       1 <1>        -0.0568 
     24 C24         0.7817    8.5577    2.1246 C.3       1 <1>        -0.0590 
     25 C25         0.0778    8.3369   -0.9209 C.3       1 <1>        -0.0118 
     26 C26         0.4691    8.7123   -2.4048 C.3       1 <1>         0.0874 
     27 C27        -0.5485    9.5627   -3.2612 C.3       1 <1>         0.0874 
     28 C28        -0.0104   10.1119   -4.6353 C.3       1 <1>        -0.0128 
     29 C29         5.9871    2.1023    4.8448 C.3       1 <1>         0.0369 
     30 C30         0.9397   12.4771   -3.9825 C.3       1 <1>        -0.0623 
     31 C31         1.9946   11.2006   -5.9098 C.3       1 <1>        -0.0623 
     32 C32        -1.2916    7.6122   -0.7674 C.3       1 <1>        -0.0597 
     33 O33         1.3952    7.8276   -3.0847 O.3       1 <1>        -0.3769 
     34 O34        -1.9192    9.0998   -3.3695 O.3       1 <1>        -0.3769 
     35 C35        -1.1675   10.8175   -5.4100 C.3       1 <1>        -0.0597 
     36 C36         0.8864    6.6023   -3.6302 C.3       1 <1>         0.0369 
     37 C37        -2.1603    7.8697   -4.0790 C.3       1 <1>         0.0369 
     38 H1          1.5946    2.7300    4.0566 H         1 <1>         0.0298 
     39 H2          3.2417    3.3092    3.7078 H         1 <1>         0.0298 
     40 H3          2.2299    2.1210    6.3562 H         1 <1>         0.0619 
     41 H4          4.5690    2.3030    7.1543 H         1 <1>         0.0623 
     42 H5          4.7078    4.7924    7.3736 H         1 <1>         0.0319 
     43 H6          3.0726    4.2160    7.7020 H         1 <1>         0.0319 
     44 H7          4.2140    5.3194    5.1172 H         1 <1>         0.0560 
     45 H8          1.0575    6.4240    4.2276 H         1 <1>         0.0311 
     46 H9          3.6948    5.6043    2.9808 H         1 <1>         0.0332 
     47 H10         3.1595    8.4708    3.5943 H         1 <1>         0.0616 
     48 H11         4.5380    7.4801    4.0574 H         1 <1>         0.0616 
     49 H12        -0.0960    4.4555    3.1632 H         1 <1>         0.0268 
     50 H13         1.3207    4.2574    2.1371 H         1 <1>         0.0268 
     51 H14        -0.7461    6.5040    2.2492 H         1 <1>         0.0271 
     52 H15        -0.2151    5.5427    0.8548 H         1 <1>         0.0271 
     53 H16         2.6371    5.7976    1.0377 H         1 <1>         0.0310 
     54 H17         4.4173    7.1583    0.5168 H         1 <1>         0.0268 
     55 H18         3.8503    8.5444    1.4605 H         1 <1>         0.0268 
     56 H19         3.1222    7.9655   -1.2838 H         1 <1>         0.0268 
     57 H20         2.5528    9.3025   -0.2564 H         1 <1>         0.0268 
     58 H21         1.2949    6.5723   -0.7209 H         1 <1>         0.0310 
     59 H22         3.6129    0.3713    5.6533 H         1 <1>         0.2099 
     60 H23         2.0094   10.6043   -3.9006 H         1 <1>         0.0299 
     61 H24        -0.0308    4.1554    5.4367 H         1 <1>         0.0237 
     62 H25         0.5600    5.5699    6.3313 H         1 <1>         0.0237 
     63 H26         0.9976    3.9499    6.8391 H         1 <1>         0.0237 
     64 H27         0.8065    8.4270    3.2105 H         1 <1>         0.0235 
     65 H28        -0.2358    8.8956    1.8886 H         1 <1>         0.0235 
     66 H29         1.4679    9.3790    1.8791 H         1 <1>         0.0235 
     67 H30        -0.0592    9.2986   -0.3952 H         1 <1>         0.0327 
     68 H31         1.2424    9.4632   -2.2008 H         1 <1>         0.0624 
     69 H32        -0.7624   10.4533   -2.6502 H         1 <1>         0.0624 
     70 H33         0.2905    9.2260   -5.2145 H         1 <1>         0.0326 
     71 H34         6.2219    1.3037    5.5661 H         1 <1>         0.0524 
     72 H35         6.9320    2.4512    4.4015 H         1 <1>         0.0524 
     73 H36         5.3655    1.7035    4.0304 H         1 <1>         0.0524 
     74 H37         0.3067   13.0522   -4.6737 H         1 <1>         0.0232 
     75 H38         1.8743   13.0432   -3.8489 H         1 <1>         0.0232 
     76 H39         0.4394   12.4343   -3.0053 H         1 <1>         0.0232 
     77 H40         2.2418   10.2101   -6.3244 H         1 <1>         0.0232 
     78 H41         2.9410   11.7480   -5.7680 H         1 <1>         0.0232 
     79 H42         1.4070   11.7531   -6.6556 H         1 <1>         0.0232 
     80 H43        -2.1096    8.1800   -1.2242 H         1 <1>         0.0233 
     81 H44        -1.5693    7.5205    0.2897 H         1 <1>         0.0233 
     82 H45        -1.2654    6.6046   -1.2008 H         1 <1>         0.0233 
     83 H46        -1.9807   10.1270   -5.6650 H         1 <1>         0.0233 
     84 H47        -1.6075   11.6183   -4.7994 H         1 <1>         0.0233 
     85 H48        -0.8240   11.2509   -6.3569 H         1 <1>         0.0233 
     86 H49         0.3027    6.7785   -4.5400 H         1 <1>         0.0524 
     87 H50         0.3130    6.0089   -2.9070 H         1 <1>         0.0524 
     88 H51         1.7641    6.0100   -3.9260 H         1 <1>         0.0524 
     89 H52        -1.7388    7.8514   -5.0936 H         1 <1>         0.0524 
     90 H53        -3.2528    7.7791   -4.1710 H         1 <1>         0.0524 
     91 H54        -1.8178    6.9946   -3.5165 H         1 <1>         0.0524 
@<TRIPOS>BOND
     1    1    2 1    
     2    2    3 1    
     3    4    3 1    
     4    5    4 1    
     5    6    5 1    
     6    6    1 1    
     7    7    6 1    
     8    8    7 1    
     9    8    9 1    
    10    9   10 1    
    11   10   11 1    
    12   11   12 2    
    13   11    5 1    
    14   13    7 1    
    15   14   13 1    
    16   15   14 1    
    17   15   16 1    
    18   16    8 1    
    19   16   17 1    
    20   18   17 1    
    21   19   18 1    
    22   19   15 1    
    23    2   20 1    
    24    3   21 1    
    25   28   22 1    
    26    6   23 1    
    27   15   24 1    
    28   25   19 1    
    29   26   25 1    
    30   27   26 1    
    31   27   28 1    
    32   21   29 1    
    33   22   30 1    
    34   22   31 1    
    35   25   32 1    
    36   26   33 1    
    37   27   34 1    
    38   28   35 1    
    39   33   36 1    
    40   34   37 1    
    41    1   38 1    
    42    1   39 1    
    43    2   40 1    
    44    3   41 1    
    45    4   42 1    
    46    4   43 1    
    47    5   44 1    
    48    7   45 1    
    49    8   46 1    
    50    9   47 1    
    51    9   48 1    
    52   13   49 1    
    53   13   50 1    
    54   14   51 1    
    55   14   52 1    
    56   16   53 1    
    57   17   54 1    
    58   17   55 1    
    59   18   56 1    
    60   18   57 1    
    61   19   58 1    
    62   20   59 1    
    63   22   60 1    
    64   23   61 1    
    65   23   62 1    
    66   23   63 1    
    67   24   64 1    
    68   24   65 1    
    69   24   66 1    
    70   25   67 1    
    71   26   68 1    
    72   27   69 1    
    73   28   70 1    
    74   29   71 1    
    75   29   72 1    
    76   29   73 1    
    77   30   74 1    
    78   30   75 1    
    79   30   76 1    
    80   31   77 1    
    81   31   78 1    
    82   31   79 1    
    83   32   80 1    
    84   32   81 1    
    85   32   82 1    
    86   35   83 1    
    87   35   84 1    
    88   35   85 1    
    89   36   86 1    
    90   36   87 1    
    91   36   88 1    
    92   37   89 1    
    93   37   90 1    
    94   37   91 1    
@<TRIPOS>SUBSTRUCTURE
     1 ****        2 TEMP              0 ****  ****    0 ROOT 
@<TRIPOS>NORMAL
@<TRIPOS>FF_PBC
FORCE_FIELD_SETUP_FEATURE Force Field Setup information
v1.0  0 0.000000 0.000000 0.000000 0.000000 0.000000 0.000000 NONE 0 0 0 0 1 0 0 0 0 0 0 0 0
