#	Name:			PISM00201
#	Creating user name:	14062
#	Creation time:		Wed Jun 19 15:19:13 2019

#	Modifying user name:	14062
#	Modification time:	Wed Jun 19 15:23:12 2019

@<TRIPOS>MOLECULE
PISM00201
   37    37     1     1     0
SMALL
GAST_HUCK


@<TRIPOS>ATOM
      1 C1         -4.6997   -0.8696   -3.1712 C.3       1 BENZYL      0.1806 
      2 O2         -4.4187   -2.1702   -3.7356 O.3       1 BENZYL     -0.2917 
      3 C2         -3.0881   -2.4346   -4.0693 C.ar      1 BENZYL      0.1096 
      4 C3         -2.6733   -2.3564   -5.4022 C.ar      1 BENZYL     -0.0315 
      5 C4         -1.3319   -2.5662   -5.7352 C.ar      1 BENZYL     -0.0564 
      6 C5         -0.4051   -2.8757   -4.7365 C.ar      1 BENZYL      0.0291 
      7 C6         -0.8248   -2.9919   -3.4087 C.ar      1 BENZYL     -0.0426 
      8 C7         -2.1668   -2.7863   -3.0765 C.ar      1 BENZYL      0.0688 
      9 Cl9         1.2798   -3.1196   -5.1481 Cl        1 BENZYL     -0.0810 
     10 Cl10       -2.6837   -2.9787   -1.4129 Cl        1 BENZYL     -0.0787 
     11 C11        -6.1260   -0.8211   -2.6516 C.2       1 BENZYL      0.2656 
     12 O12        -6.9500   -1.6619   -2.9686 O.2       1 BENZYL     -0.3672 
     13 O13        -6.5046    0.1656   -1.8290 O.3       1 BENZYL     -0.2904 
     14 C14        -4.4727    0.2552   -4.2203 C.3       1 BENZYL     -0.0032 
     15 C15        -5.4836    0.1598   -5.3973 C.3       1 BENZYL     -0.0481 
     16 H1         -4.0336   -0.7107   -2.3084 H         1 BENZYL      0.0913 
     17 H2         -3.3935   -2.1327   -6.1809 H         1 BENZYL      0.0543 
     18 H3         -1.0083   -2.4896   -6.7684 H         1 BENZYL      0.0597 
     19 H4         -0.1075   -3.2436   -2.6350 H         1 BENZYL      0.0601 
     20 H5         -5.8301    0.7936   -1.6043 H         1 BENZYL      0.2540 
     21 H6         -3.4428    0.1863   -4.6039 H         1 BENZYL      0.0320 
     22 H7         -4.5800    1.2422   -3.7419 H         1 BENZYL      0.0320 
     23 C23        -5.1467    1.1859   -6.5135 C.3       1 BENZYL     -0.0528 
     24 H9         -6.5030    0.3562   -5.0261 H         1 BENZYL      0.0268 
     25 H10        -5.4694   -0.8566   -5.8204 H         1 BENZYL      0.0268 
     26 H8         -4.1341    0.9847   -6.9006 H         1 BENZYL      0.0265 
     27 H11        -5.1591    2.2034   -6.0890 H         1 BENZYL      0.0265 
     28 C28        -6.1643    1.1056   -7.6843 C.3       1 BENZYL     -0.0533 
     29 C29        -5.8235    2.1309   -8.8000 C.3       1 BENZYL     -0.0559 
     30 H13        -7.1782    1.3084   -7.3019 H         1 BENZYL      0.0265 
     31 H14        -6.1528    0.0883   -8.1095 H         1 BENZYL      0.0265 
     32 C32        -6.8425    2.0551   -9.9667 C.3       1 BENZYL     -0.0653 
     33 H12        -4.8125    1.9288   -9.1916 H         1 BENZYL      0.0263 
     34 H15        -5.8330    3.1507   -8.3803 H         1 BENZYL      0.0263 
     35 H16        -6.5824    2.7887  -10.7463 H         1 BENZYL      0.0230 
     36 H17        -7.8586    2.2753   -9.6040 H         1 BENZYL      0.0230 
     37 H18        -6.8376    1.0499  -10.4163 H         1 BENZYL      0.0230 
@<TRIPOS>BOND
     1    2    3 1    
     2    3    4 ar   
     3    3    8 ar   
     4    8    7 ar   
     5    7    6 ar   
     6    6    5 ar   
     7    5    4 ar   
     8    2    1 1    
     9    6    9 1    
    10    8   10 1    
    11    1   11 1    
    12   11   12 2    
    13   11   13 1    
    14    1   14 1    
    15   14   15 1    
    16    1   16 1    
    17    4   17 1    
    18    5   18 1    
    19    7   19 1    
    20   13   20 1    
    21   14   21 1    
    22   14   22 1    
    23   15   23 1    
    24   15   24 1    
    25   15   25 1    
    26   23   26 1    
    27   23   27 1    
    28   23   28 1    
    29   28   29 1    
    30   28   30 1    
    31   28   31 1    
    32   29   32 1    
    33   29   33 1    
    34   29   34 1    
    35   32   35 1    
    36   32   36 1    
    37   32   37 1    
@<TRIPOS>SUBSTRUCTURE
     1 BENZYL      2 PERM              0 ****  ****    0 ROOT 
@<TRIPOS>NORMAL
@<TRIPOS>FF_PBC
FORCE_FIELD_SETUP_FEATURE Force Field Setup information
v1.0  0 0.000000 0.000000 0.000000 0.000000 0.000000 0.000000 NONE 0 0 0 0 1 0 0 0 0 0 0 0 0
