#	Name:			PISM00851
#	Creating user name:	baoopengkun
#	Creation time:		Thu Dec 13 15:12:19 2018

#	Modifying user name:	baoopengkun
#	Modification time:	Thu Dec 13 20:03:49 2018

@<TRIPOS>MOLECULE
PISM00851
   24    25     1     1     0
SMALL
GAST_HUCK


@<TRIPOS>ATOM
      1 H3         -1.3842    2.1651   -2.9370 H         1 <1>         0.0596 
      2 C2         -1.6972    0.6234    0.0828 C.ar      1 <1>        -0.0564 
      3 C3         -2.0569    1.3507   -1.0556 C.ar      1 <1>        -0.0718 
      4 C4         -1.1071    1.6056   -2.0492 C.ar      1 <1>        -0.0564 
      5 C5          0.2024    1.1399   -1.9012 C.ar      1 <1>         0.0689 
      6 C6          0.5668    0.4288   -0.7538 C.ar      1 <1>         0.1267 
      7 C7         -0.3876    0.1583    0.2317 C.ar      1 <1>         0.0689 
      8 Cl8         0.0533   -0.7643    1.6546 Cl        1 <1>        -0.0788 
      9 O9          1.8812   -0.0090   -0.5967 O.3       1 <1>        -0.2690 
     10 C10         2.6827    0.9031    0.1649 C.3       1 <1>         0.2361 
     11 O11         2.6775    2.2040   -0.4571 O.3       1 <1>        -0.2312 
     12 C12         3.9259    2.4033   -0.8598 C.2       1 <1>         0.2495 
     13 C13         4.8674    1.3369   -0.5365 C.2       1 <1>         0.0292 
     14 C14         4.1144    0.4348    0.0897 C.2       1 <1>        -0.0019 
     15 C15         6.3385    1.2682   -0.8430 C.3       1 <1>        -0.0323 
     16 O16         4.2578    3.4158   -1.4518 O.2       1 <1>        -0.3691 
     17 H1         -2.4342    0.4186    0.8527 H         1 <1>         0.0596 
     18 H2         -3.0731    1.7167   -1.1684 H         1 <1>         0.0524 
     19 Cl19        1.3867    1.4478   -3.1555 Cl        1 <1>        -0.0788 
     20 H4          2.3470    0.9810    1.2120 H         1 <1>         0.1200 
     21 H5          4.4741   -0.5135    0.4868 H         1 <1>         0.0705 
     22 H6          6.5839    0.2935   -1.2906 H         1 <1>         0.0347 
     23 H7          6.9141    1.3945    0.0859 H         1 <1>         0.0347 
     24 H8          6.6183    2.0647   -1.5487 H         1 <1>         0.0347 
@<TRIPOS>BOND
     1    4    1 1    
     2    2    3 ar   
     3    3    4 ar   
     4    4    5 ar   
     5    5    6 ar   
     6    6    7 ar   
     7    2    7 ar   
     8    7    8 1    
     9    6    9 1    
    10    9   10 1    
    11   10   11 1    
    12   11   12 1    
    13   12   13 1    
    14   13   14 2    
    15   10   14 1    
    16   13   15 1    
    17   12   16 2    
    18    2   17 1    
    19    3   18 1    
    20    5   19 1    
    21   10   20 1    
    22   14   21 1    
    23   15   22 1    
    24   15   23 1    
    25   15   24 1    
@<TRIPOS>SUBSTRUCTURE
     1 ****        2 TEMP              0 ****  ****    0 ROOT 
@<TRIPOS>NORMAL
@<TRIPOS>FF_PBC
FORCE_FIELD_SETUP_FEATURE Force Field Setup information
v1.0  0 0.000000 0.000000 0.000000 0.000000 0.000000 0.000000 NONE 0 0 0 0 1 0 0 0 0 0 0 0 0
