#	Name:			PISM00732
#	Creating user name:	baoopengkun
#	Creation time:		Sun Jan 20 22:12:58 2019

#	Modifying user name:	baoopengkun
#	Modification time:	Sun Jan 20 22:14:14 2019

@<TRIPOS>MOLECULE
PISM00732
   81    84     1     1     0
SMALL
GAST_HUCK


@<TRIPOS>ATOM
      1 C1         -5.7067    8.6028   -2.1335 C.3       1 <1>        -0.0163 
      2 C2         -7.0484    7.8144   -2.0920 C.3       1 <1>         0.0819 
      3 C3         -7.2100    7.0666   -0.7410 C.3       1 <1>         0.0835 
      4 C4         -7.1032    8.0634    0.4461 C.3       1 <1>        -0.0028 
      5 C5         -5.7277    8.7877    0.3813 C.3       1 <1>         0.0681 
      6 C6         -5.5160    9.5995   -0.9444 C.3       1 <1>        -0.0055 
      7 C7         -4.0795   10.2637   -0.9563 C.3       1 <1>        -0.0276 
      8 C8         -2.9756    9.3983   -0.2650 C.3       1 <1>        -0.0063 
      9 C9         -3.1106    9.4610    1.2966 C.3       1 <1>         0.0801 
     10 O10        -4.2570   10.1332    1.8716 O.3       1 <1>        -0.2763 
     11 C11        -5.4896    9.6955    1.5601 C.2       1 <1>         0.2374 
     12 O12        -6.4309   10.0673    2.2392 O.2       1 <1>        -0.3701 
     13 C13        -3.5798   10.7520   -2.3504 C.3       1 <1>        -0.0487 
     14 C14        -2.3184   11.6706   -2.2294 C.3       1 <1>        -0.0468 
     15 C15        -1.2622   11.2046   -1.1645 C.3       1 <1>        -0.0257 
     16 C16        -1.5539    9.7122   -0.8494 C.3       1 <1>        -0.0298 
     17 C17        -0.2944    9.1663   -0.1299 C.3       1 <1>        -0.0491 
     18 C18         0.8581   10.0362   -0.7131 C.3       1 <1>        -0.0491 
     19 C19         0.2153   11.0768   -1.6849 C.3       1 <1>        -0.0304 
     20 O20        -7.0946    6.8466   -3.1595 O.3       1 <1>        -0.3892 
     21 O21        -6.1826    6.0600   -0.6359 O.3       1 <1>        -0.3891 
     22 N22         5.3127   12.3631   -1.2027 N.3       1 <1>        -0.3031 
     23 C23        -6.5735   10.7558   -1.0493 C.3       1 <1>        -0.0568 
     24 C24        -1.3068   12.1104    0.1085 C.3       1 <1>        -0.0590 
     25 C25         1.0931   12.3666   -1.8611 C.3       1 <1>        -0.0120 
     26 C26         2.5523   11.9774   -2.2880 C.3       1 <1>         0.0853 
     27 C27         3.4735   13.1777   -2.6699 C.3       1 <1>         0.0965 
     28 C28         4.9703   12.7437   -2.6023 C.3       1 <1>         0.0354 
     29 H1         -5.6762    9.1465   -3.0901 H         1 <1>         0.0298 
     30 C30         6.1446   11.1442   -1.0559 C.3       1 <1>        -0.0127 
     31 C31         5.6714   13.4485   -0.2562 C.3       1 <1>        -0.0127 
     32 C32         0.4416   13.3828   -2.8443 C.3       1 <1>        -0.0597 
     33 O33         2.5549   11.0209   -3.3628 O.3       1 <1>        -0.3889 
     34 O34         3.1071   13.5870   -4.0048 O.3       1 <1>        -0.3877 
     35 C35         5.9604   13.8056   -3.1564 C.3       1 <1>        -0.0470 
     36 H2         -4.8912    7.8638   -2.1389 H         1 <1>         0.0298 
     37 H3         -7.9104    8.4886   -2.2280 H         1 <1>         0.0619 
     38 H4         -8.2002    6.5757   -0.7401 H         1 <1>         0.0621 
     39 H5         -7.1736    7.4969    1.3901 H         1 <1>         0.0319 
     40 H6         -7.9495    8.7644    0.4444 H         1 <1>         0.0319 
     41 H7         -5.0308    7.9470    0.4766 H         1 <1>         0.0560 
     42 H8         -4.1545   11.1914   -0.3731 H         1 <1>         0.0311 
     43 H9         -3.1183    8.3469   -0.5649 H         1 <1>         0.0332 
     44 H10        -2.3077   10.0736    1.7206 H         1 <1>         0.0616 
     45 H11        -3.0041    8.4596    1.7471 H         1 <1>         0.0616 
     46 H12        -4.3496   11.3280   -2.8857 H         1 <1>         0.0268 
     47 H13        -3.3564    9.8774   -2.9813 H         1 <1>         0.0268 
     48 H14        -2.6715   12.6836   -1.9746 H         1 <1>         0.0271 
     49 H15        -1.8716   11.7271   -3.2346 H         1 <1>         0.0271 
     50 H16        -1.5020    9.1973   -1.8290 H         1 <1>         0.0310 
     51 H17        -0.1490    8.0898   -0.3276 H         1 <1>         0.0268 
     52 H18        -0.3315    9.2891    0.9616 H         1 <1>         0.0268 
     53 H19         1.5988    9.4091   -1.2381 H         1 <1>         0.0268 
     54 H20         1.3778   10.5504    0.1122 H         1 <1>         0.0268 
     55 H21         0.1712   10.6020   -2.6806 H         1 <1>         0.0310 
     56 H22        -7.0183    7.2299   -4.0275 H         1 <1>         0.2099 
     57 H23        -6.2633    5.5124    0.1388 H         1 <1>         0.2099 
     58 H24        -6.4446   11.3352   -1.9724 H         1 <1>         0.0237 
     59 H25        -6.4781   11.4548   -0.2048 H         1 <1>         0.0237 
     60 H26        -7.6153   10.4211   -1.0528 H         1 <1>         0.0237 
     61 H27        -0.5982   11.7786    0.8794 H         1 <1>         0.0235 
     62 H28        -2.3038   12.1448    0.5621 H         1 <1>         0.0235 
     63 H29        -1.0544   13.1480   -0.1499 H         1 <1>         0.0235 
     64 H30         1.1839   12.8755   -0.8875 H         1 <1>         0.0327 
     65 H31         3.0169   11.4643   -1.4315 H         1 <1>         0.0622 
     66 H32         3.3008   13.9947   -1.9519 H         1 <1>         0.0635 
     67 H33         5.0565   11.8661   -3.2660 H         1 <1>         0.0486 
     68 H34         5.6566   10.2880   -1.5462 H         1 <1>         0.0391 
     69 H35         6.2820   10.8812    0.0041 H         1 <1>         0.0391 
     70 H36         7.1345   11.2992   -1.5108 H         1 <1>         0.0391 
     71 H37         5.5587   13.0926    0.7788 H         1 <1>         0.0391 
     72 H38         5.0238   14.3289   -0.3680 H         1 <1>         0.0391 
     73 H39         6.7160   13.7618   -0.4041 H         1 <1>         0.0391 
     74 H40         0.3427   12.9475   -3.8495 H         1 <1>         0.0233 
     75 H41         1.0296   14.3082   -2.9173 H         1 <1>         0.0233 
     76 H42        -0.5520   13.6900   -2.4970 H         1 <1>         0.0233 
     77 H43         2.2599   11.4194   -4.1752 H         1 <1>         0.2099 
     78 H44         3.5265   14.3912   -4.2917 H         1 <1>         0.2100 
     79 H45         6.9944   13.4885   -2.9509 H         1 <1>         0.0246 
     80 H46         5.7931   14.7891   -2.6931 H         1 <1>         0.0246 
     81 H47         5.8579   13.9133   -4.2467 H         1 <1>         0.0246 
@<TRIPOS>BOND
     1    1    2 1    
     2    2    3 1    
     3    4    3 1    
     4    5    4 1    
     5    6    5 1    
     6    6    1 1    
     7    7    6 1    
     8    8    7 1    
     9    8    9 1    
    10    9   10 1    
    11   10   11 1    
    12   11   12 2    
    13   11    5 1    
    14   13    7 1    
    15   14   13 1    
    16   15   14 1    
    17   15   16 1    
    18   16    8 1    
    19   16   17 1    
    20   18   17 1    
    21   19   18 1    
    22   19   15 1    
    23    2   20 1    
    24    3   21 1    
    25   28   22 1    
    26    6   23 1    
    27   15   24 1    
    28   25   19 1    
    29   26   25 1    
    30   27   26 1    
    31   27   28 1    
    32    1   29 1    
    33   22   30 1    
    34   22   31 1    
    35   25   32 1    
    36   26   33 1    
    37   27   34 1    
    38   28   35 1    
    39    1   36 1    
    40    2   37 1    
    41    3   38 1    
    42    4   39 1    
    43    4   40 1    
    44    5   41 1    
    45    7   42 1    
    46    8   43 1    
    47    9   44 1    
    48    9   45 1    
    49   13   46 1    
    50   13   47 1    
    51   14   48 1    
    52   14   49 1    
    53   16   50 1    
    54   17   51 1    
    55   17   52 1    
    56   18   53 1    
    57   18   54 1    
    58   19   55 1    
    59   20   56 1    
    60   21   57 1    
    61   23   58 1    
    62   23   59 1    
    63   23   60 1    
    64   24   61 1    
    65   24   62 1    
    66   24   63 1    
    67   25   64 1    
    68   26   65 1    
    69   27   66 1    
    70   28   67 1    
    71   30   68 1    
    72   30   69 1    
    73   30   70 1    
    74   31   71 1    
    75   31   72 1    
    76   31   73 1    
    77   32   74 1    
    78   32   75 1    
    79   32   76 1    
    80   33   77 1    
    81   34   78 1    
    82   35   79 1    
    83   35   80 1    
    84   35   81 1    
@<TRIPOS>SUBSTRUCTURE
     1 ****        2 TEMP              0 ****  ****    0 ROOT 
@<TRIPOS>NORMAL
@<TRIPOS>FF_PBC
FORCE_FIELD_SETUP_FEATURE Force Field Setup information
v1.0  0 0.000000 0.000000 0.000000 0.000000 0.000000 0.000000 NONE 0 0 0 0 1 0 0 0 0 0 0 0 0
