#	Name:			PISM00879.1
#	Creating user name:	baoopengkun
#	Creation time:		Fri Dec 14 00:11:37 2018

#	Modifying user name:	baoopengkun
#	Modification time:	Fri Dec 14 00:13:31 2018

@<TRIPOS>MOLECULE
PISM00879.1
   28    30     1     1     0
SMALL
GAST_HUCK


@<TRIPOS>ATOM
      1 C1          4.3722   -1.6109   -4.9794 C.ar      1 <1>        -0.0400 
      2 C2          3.2095   -2.3096   -5.3223 C.ar      1 <1>        -0.0561 
      3 C3          2.0085   -2.0624   -4.6465 C.ar      1 <1>        -0.0557 
      4 C4          1.9579   -1.1130   -3.6201 C.ar      1 <1>        -0.0290 
      5 C5          3.1197   -0.4180   -3.2792 C.ar      1 <1>         0.1335 
      6 C6          4.3187   -0.6641   -3.9536 C.ar      1 <1>         0.0789 
      7 S7          3.1999    0.8082   -1.9998 S.o2      1 <1>         0.1003 
      8 N8          5.1877    0.9997   -2.4819 N.am      1 <1>        -0.0938 
      9 C9          5.4934    0.1609   -3.4812 C.2       1 <1>         0.2346 
     10 O10         6.6035    0.0545   -3.9747 O.2       1 <1>        -0.3824 
     11 O11         3.0629    0.1949   -0.6946 O.2       1 <1>        -0.1444 
     12 O12         2.4743    2.0000   -2.3880 O.2       1 <1>        -0.1444 
     13 C13         6.1469    1.9198   -1.9057 C.3       1 <1>         0.2217 
     14 C14         5.6600    2.2638   -0.5197 C.2       1 <1>        -0.0085 
     15 C15         5.3001    3.5440   -0.4557 C.2       1 <1>         0.0285 
     16 C16         5.5799    4.0450   -1.7968 C.2       1 <1>         0.2489 
     17 O17         6.0935    3.1588   -2.6411 O.3       1 <1>        -0.2369 
     18 C18         4.7452    4.2937    0.7240 C.3       1 <1>        -0.0323 
     19 O19         5.3682    5.1998   -2.1244 O.2       1 <1>        -0.3691 
     20 H1          5.3054   -1.7989   -5.5012 H         1 <1>         0.0670 
     21 H2          3.2397   -3.0482   -6.1181 H         1 <1>         0.0629 
     22 H3          1.1114   -2.6100   -4.9201 H         1 <1>         0.0653 
     23 H4          1.0316   -0.9137   -3.0914 H         1 <1>         0.0649 
     24 H5          7.1712    1.5119   -1.8916 H         1 <1>         0.1119 
     25 H6          5.6003    1.5575    0.3076 H         1 <1>         0.0699 
     26 H7          4.6688    5.3669    0.4937 H         1 <1>         0.0347 
     27 H8          5.4041    4.1614    1.5951 H         1 <1>         0.0347 
     28 H9          3.7439    3.9077    0.9659 H         1 <1>         0.0347 
@<TRIPOS>BOND
     1    2    1 ar   
     2    2    3 ar   
     3    3    4 ar   
     4    4    5 ar   
     5    5    6 ar   
     6    1    6 ar   
     7    5    7 1    
     8    7    8 1    
     9    8    9 am   
    10    6    9 1    
    11    9   10 2    
    12    7   11 2    
    13    7   12 2    
    14    8   13 1    
    15   13   14 1    
    16   14   15 2    
    17   15   16 1    
    18   16   17 1    
    19   13   17 1    
    20   15   18 1    
    21   16   19 2    
    22    1   20 1    
    23    2   21 1    
    24    3   22 1    
    25    4   23 1    
    26   13   24 1    
    27   14   25 1    
    28   18   26 1    
    29   18   27 1    
    30   18   28 1    
@<TRIPOS>SUBSTRUCTURE
     1 ****        2 TEMP              0 ****  ****    0 ROOT 
@<TRIPOS>NORMAL
@<TRIPOS>FF_PBC
FORCE_FIELD_SETUP_FEATURE Force Field Setup information
v1.0  0 0.000000 0.000000 0.000000 0.000000 0.000000 0.000000 NONE 0 0 0 0 1 0 0 0 0 0 0 0 0
