#	Name:			PISM00087
#	Creating user name:	baoopengkun
#	Creation time:		Thu Dec 27 16:32:29 2018

#	Modifying user name:	baoopengkun
#	Modification time:	Thu Dec 27 16:34:10 2018

@<TRIPOS>MOLECULE
PISM00087
   35    36     1     1     0
SMALL
GAST_HUCK


@<TRIPOS>ATOM
      1 C1          5.8907    9.1313  -10.5099 C.3       1 <1>         0.0311 
      2 C2          4.6333    8.4803   -9.9921 C.2       1 <1>         0.1974 
      3 O3          4.6826    7.9258   -8.9067 O.2       1 <1>        -0.3798 
      4 N4          3.5540    8.5262  -10.7283 N.pl3     1 <1>        -0.2423 
      5 C5          2.3850    7.9664  -10.3292 C.ar      1 <1>         0.0515 
      6 C6          1.6484    7.1954  -11.2349 C.ar      1 <1>        -0.0177 
      7 C7          0.4272    6.6241  -10.8614 C.ar      1 <1>         0.0563 
      8 C8         -0.0352    6.7817   -9.5516 C.ar      1 <1>        -0.0504 
      9 C9          0.6977    7.5427   -8.6370 C.ar      1 <1>        -0.0814 
     10 C10         1.8920    8.1524   -9.0320 C.ar      1 <1>        -0.0515 
     11 N11        -0.3032    5.9076  -11.7488 N.pl3     1 <1>        -0.2367 
     12 C12        -0.7326    6.4234  -12.8742 C.2       1 <1>         0.1808 
     13 S13        -0.4245    8.0766  -13.2412 S.2       1 <1>        -0.2545 
     14 N14        -1.4187    5.7550  -13.7664 N.pl3     1 <1>        -0.2361 
     15 C15        -1.7062    4.4378  -13.6478 C.ar      1 <1>         0.0638 
     16 C16        -3.0377    4.0209  -13.5583 C.ar      1 <1>        -0.0259 
     17 C17        -3.3416    2.6629  -13.4279 C.ar      1 <1>         0.0641 
     18 C18        -2.3125    1.7178  -13.3892 C.ar      1 <1>         0.1340 
     19 C19        -0.9815    2.1308  -13.4898 C.ar      1 <1>        -0.0371 
     20 C20        -0.6786    3.4886  -13.6277 C.ar      1 <1>        -0.0396 
     21 Cl21       -5.0120    2.1481  -13.3123 Cl        1 <1>        -0.0751 
     22 F22        -2.5951    0.4243  -13.2571 F         1 <1>        -0.1923 
     23 H1          6.2028    8.6419  -11.4441 H         1 <1>         0.0475 
     24 H2          6.7058    9.0420   -9.7756 H         1 <1>         0.0475 
     25 H3          5.7055   10.1984  -10.7016 H         1 <1>         0.0475 
     26 H4          3.5896    8.9804  -11.6530 H         1 <1>         0.2106 
     27 H5          2.0337    7.0311  -12.2355 H         1 <1>         0.0440 
     28 H6         -0.9665    6.3158   -9.2459 H         1 <1>         0.0437 
     29 H7          0.3375    7.6633   -7.6198 H         1 <1>         0.0558 
     30 H8          2.4274    8.7771   -8.3247 H         1 <1>         0.0435 
     31 H9         -0.5466    4.9424  -11.4926 H         1 <1>         0.2192 
     32 H10        -1.7590    6.2493  -14.6057 H         1 <1>         0.2184 
     33 H11        -3.8372    4.7536  -13.5873 H         1 <1>         0.0531 
     34 H12        -0.1867    1.3926  -13.4610 H         1 <1>         0.0576 
     35 H13         0.3550    3.8075  -13.7218 H         1 <1>         0.0529 
@<TRIPOS>BOND
     1    2    1 1    
     2    2    3 2    
     3    2    4 1    
     4    4    5 1    
     5    5    6 ar   
     6    6    7 ar   
     7    7    8 ar   
     8    8    9 ar   
     9    9   10 ar   
    10    5   10 ar   
    11    7   11 1    
    12   11   12 1    
    13   12   13 2    
    14   12   14 1    
    15   14   15 1    
    16   15   16 ar   
    17   16   17 ar   
    18   17   18 ar   
    19   18   19 ar   
    20   19   20 ar   
    21   15   20 ar   
    22   17   21 1    
    23   18   22 1    
    24    1   23 1    
    25    1   24 1    
    26    1   25 1    
    27    4   26 1    
    28    6   27 1    
    29    8   28 1    
    30    9   29 1    
    31   10   30 1    
    32   11   31 1    
    33   14   32 1    
    34   16   33 1    
    35   19   34 1    
    36   20   35 1    
@<TRIPOS>SUBSTRUCTURE
     1 ****        2 TEMP              0 ****  ****    0 ROOT 
@<TRIPOS>NORMAL
@<TRIPOS>FF_PBC
FORCE_FIELD_SETUP_FEATURE Force Field Setup information
v1.0  0 0.000000 0.000000 0.000000 0.000000 0.000000 0.000000 NONE 0 0 0 0 1 0 0 0 0 0 0 0 0
