#	Name:			PISM00952
#	Creating user name:	baoopengkun
#	Creation time:		Thu Dec 13 10:09:20 2018

#	Modifying user name:	baoopengkun
#	Modification time:	Thu Dec 13 10:13:26 2018

@<TRIPOS>MOLECULE
PISM00952
   38    39     1     1     0
SMALL
GAST_HUCK


@<TRIPOS>ATOM
      1 C1         -9.8413   -2.6807   -1.6601 C.3       1 <1>        -0.0575 
      2 C2         -8.7837   -1.6550   -2.1622 C.3       1 <1>        -0.0059 
      3 C3         -7.7786   -2.4127   -3.0890 C.3       1 <1>        -0.0575 
      4 C4         -7.9746   -1.1341   -0.9322 C.3       1 <1>        -0.0575 
      5 C5         -9.4576   -0.4732   -2.9565 C.3       1 <1>         0.1219 
      6 O6        -10.2070   -0.9432   -4.0975 O.3       1 <1>        -0.3851 
      7 C7        -10.3947    0.4585   -2.1232 C.3       1 <1>         0.2332 
      8 N8        -11.6447   -0.1711   -1.7169 N.pl3     1 <1>        -0.1431 
      9 N9        -12.3428   -1.1271   -2.3936 N.2       1 <1>        -0.1875 
     10 C10       -13.4016   -1.5104   -1.7839 C.2       1 <1>         0.0619 
     11 N11       -13.3361   -0.6979   -0.6009 N.2       1 <1>        -0.2869 
     12 C12       -12.3176    0.0344   -0.6259 C.2       1 <1>         0.1311 
     13 O13       -10.7024    1.6801   -2.8214 O.3       1 <1>        -0.2786 
     14 C14       -11.4554    1.5294   -3.9854 C.ar      1 <1>         0.0956 
     15 C15       -12.8423    1.3694   -3.9129 C.ar      1 <1>        -0.0323 
     16 C16       -13.5857    1.1648   -5.0789 C.ar      1 <1>        -0.0567 
     17 C17       -12.9464    1.1511   -6.3217 C.ar      1 <1>         0.0285 
     18 C18       -11.5652    1.3499   -6.3988 C.ar      1 <1>        -0.0567 
     19 C19       -10.8221    1.5465   -5.2311 C.ar      1 <1>        -0.0323 
     20 Cl20      -13.8763    0.8866   -7.7825 Cl        1 <1>        -0.0810 
     21 H1        -10.4640   -3.0349   -2.4956 H         1 <1>         0.0236 
     22 H2        -10.4957   -2.2410   -0.8948 H         1 <1>         0.0236 
     23 H3         -9.3462   -3.5535   -1.2076 H         1 <1>         0.0236 
     24 H4         -7.2121   -3.1703   -2.5258 H         1 <1>         0.0236 
     25 H5         -7.0544   -1.7116   -3.5315 H         1 <1>         0.0236 
     26 H6         -8.2906   -2.9472   -3.9017 H         1 <1>         0.0236 
     27 H7         -7.3843   -1.9454   -0.4791 H         1 <1>         0.0236 
     28 H8         -8.6280   -0.7482   -0.1372 H         1 <1>         0.0236 
     29 H9         -7.2792   -0.3373   -1.2373 H         1 <1>         0.0236 
     30 H10        -8.6548    0.1915   -3.3206 H         1 <1>         0.0661 
     31 H11        -9.6924   -1.3526   -4.7830 H         1 <1>         0.2101 
     32 H12        -9.8615    0.8229   -1.2355 H         1 <1>         0.1080 
     33 H13       -14.1436   -2.2491   -2.0829 H         1 <1>         0.0864 
     34 H14       -12.0588    0.7346    0.1676 H         1 <1>         0.1362 
     35 H15       -13.3426    1.4056   -2.9513 H         1 <1>         0.0543 
     36 H16       -14.6591    1.0168   -5.0208 H         1 <1>         0.0595 
     37 H17       -11.0718    1.3504   -7.3652 H         1 <1>         0.0595 
     38 H18        -9.7513    1.7099   -5.2871 H         1 <1>         0.0543 
@<TRIPOS>BOND
     1    2    1 1    
     2    2    3 1    
     3    2    4 1    
     4    2    5 1    
     5    5    6 1    
     6    5    7 1    
     7    7    8 1    
     8    8    9 1    
     9    9   10 2    
    10   11   10 1    
    11   12   11 2    
    12    8   12 1    
    13    7   13 1    
    14   13   14 1    
    15   14   15 ar   
    16   15   16 ar   
    17   16   17 ar   
    18   18   17 ar   
    19   19   18 ar   
    20   14   19 ar   
    21   17   20 1    
    22    1   21 1    
    23    1   22 1    
    24    1   23 1    
    25    3   24 1    
    26    3   25 1    
    27    3   26 1    
    28    4   27 1    
    29    4   28 1    
    30    4   29 1    
    31    5   30 1    
    32    6   31 1    
    33    7   32 1    
    34   10   33 1    
    35   12   34 1    
    36   15   35 1    
    37   16   36 1    
    38   18   37 1    
    39   19   38 1    
@<TRIPOS>SUBSTRUCTURE
     1 ****        2 TEMP              0 ****  ****    0 ROOT 
@<TRIPOS>NORMAL
@<TRIPOS>FF_PBC
FORCE_FIELD_SETUP_FEATURE Force Field Setup information
v1.0  0 0.000000 0.000000 0.000000 0.000000 0.000000 0.000000 NONE 0 0 0 0 1 0 0 0 0 0 0 0 0
