#	Name:			PISM00390
#	Creating user name:	baoopengkun
#	Creation time:		Sun Mar 31 17:18:21 2019

#	Modifying user name:	baoopengkun
#	Modification time:	Sun Mar 31 17:19:14 2019

@<TRIPOS>MOLECULE
PISM00390
   48    48     1     1     0
SMALL
GAST_HUCK


@<TRIPOS>ATOM
      1 C1         -5.4051    2.9780   -5.5650 C.3       1 <1>        -0.0563 
      2 C2         -4.4710    3.7677   -4.5949 C.3       1 <1>         0.0067 
      3 C3         -3.1570    4.0157   -5.4093 C.3       1 <1>        -0.0563 
      4 C4         -5.0828    5.1613   -4.2469 C.3       1 <1>        -0.0182 
      5 C5         -6.2990    5.0949   -3.2832 C.3       1 <1>         0.0562 
      6 C6         -5.9265    4.3529   -1.9752 C.3       1 <1>        -0.0208 
      7 C7         -5.3664    2.9280   -2.2500 C.3       1 <1>        -0.0019 
      8 C8         -4.1720    2.9933   -3.2597 C.3       1 <1>         0.1298 
      9 O9         -6.6980    6.4280   -2.9148 O.3       1 <1>        -0.3918 
     10 C10        -6.4984    1.8960   -2.5533 C.3       1 <1>        -0.0589 
     11 C11        -3.0990    3.6780   -2.5317 C.1       1 <1>        -0.0749 
     12 C12        -2.2423    4.2405   -1.9015 C.1       1 <1>        -0.0832 
     13 C13        -1.2405    4.9076   -1.1064 C.2       1 <1>        -0.0119 
     14 C14        -0.6280    4.0982    0.0093 C.3       1 <1>        -0.0336 
     15 C15        -0.8971    6.1805   -1.3487 C.2       1 <1>        -0.0671 
     16 C16        -1.4756    7.0160   -2.4642 C.3       1 <1>         0.0156 
     17 S17        -0.1139    7.9585   -3.2190 S.3       1 <1>        -0.1489 
     18 C18        -0.9806    8.6954   -4.6413 C.3       1 <1>        -0.0071 
     19 C19        -0.0412    9.7341   -5.3007 C.3       1 <1>        -0.0560 
     20 O20        -3.7473    1.6378   -3.4921 O.3       1 <1>        -0.3767 
     21 H1         -5.4618    3.4822   -6.5417 H         1 <1>         0.0236 
     22 H2         -6.4344    2.8856   -5.2144 H         1 <1>         0.0236 
     23 H3         -5.0136    1.9648   -5.7335 H         1 <1>         0.0236 
     24 H4         -2.7313    3.0751   -5.7842 H         1 <1>         0.0236 
     25 H5         -2.3770    4.5113   -4.8179 H         1 <1>         0.0236 
     26 H6         -3.3566    4.6575   -6.2821 H         1 <1>         0.0236 
     27 H7         -5.3893    5.6745   -5.1736 H         1 <1>         0.0296 
     28 H8         -4.3189    5.7888   -3.7600 H         1 <1>         0.0296 
     29 H9         -7.1554    4.5995   -3.7642 H         1 <1>         0.0593 
     30 H10        -6.8111    4.2960   -1.3198 H         1 <1>         0.0294 
     31 H11        -5.1677    4.9552   -1.4481 H         1 <1>         0.0294 
     32 H12        -4.9346    2.5551   -1.2998 H         1 <1>         0.0335 
     33 H13        -6.9636    6.9649   -3.6549 H         1 <1>         0.2098 
     34 H14        -7.2695    2.2707   -3.2355 H         1 <1>         0.0234 
     35 H15        -7.0253    1.6384   -1.6191 H         1 <1>         0.0234 
     36 H16        -6.0837    0.9656   -2.9697 H         1 <1>         0.0234 
     37 H17         0.1255    4.6575    0.5821 H         1 <1>         0.0355 
     38 H18        -0.1496    3.2065   -0.4206 H         1 <1>         0.0355 
     39 H19        -1.4258    3.7816    0.6969 H         1 <1>         0.0355 
     40 H20        -0.1594    6.6685   -0.7072 H         1 <1>         0.0538 
     41 H21        -2.2163    7.7179   -2.0543 H         1 <1>         0.0524 
     42 H22        -1.9534    6.4079   -3.2429 H         1 <1>         0.0524 
     43 H23        -1.9122    9.1778   -4.3041 H         1 <1>         0.0375 
     44 H24        -1.2296    7.8943   -5.3558 H         1 <1>         0.0375 
     45 H25         0.2090   10.5377   -4.5893 H         1 <1>         0.0238 
     46 H26        -0.5301   10.1813   -6.1806 H         1 <1>         0.0238 
     47 H27         0.8900    9.2422   -5.6233 H         1 <1>         0.0238 
     48 H28        -2.9278    1.5674   -3.9677 H         1 <1>         0.2113 
@<TRIPOS>BOND
     1    2    1 1    
     2    2    3 1    
     3    2    4 1    
     4    4    5 1    
     5    5    6 1    
     6    6    7 1    
     7    7    8 1    
     8    2    8 1    
     9    5    9 1    
    10    7   10 1    
    11    8   11 1    
    12   11   12 3    
    13   12   13 1    
    14   13   14 1    
    15   13   15 2    
    16   15   16 1    
    17   16   17 1    
    18   17   18 1    
    19   18   19 1    
    20    8   20 1    
    21    1   21 1    
    22    1   22 1    
    23    1   23 1    
    24    3   24 1    
    25    3   25 1    
    26    3   26 1    
    27    4   27 1    
    28    4   28 1    
    29    5   29 1    
    30    6   30 1    
    31    6   31 1    
    32    7   32 1    
    33    9   33 1    
    34   10   34 1    
    35   10   35 1    
    36   10   36 1    
    37   14   37 1    
    38   14   38 1    
    39   14   39 1    
    40   15   40 1    
    41   16   41 1    
    42   16   42 1    
    43   18   43 1    
    44   18   44 1    
    45   19   45 1    
    46   19   46 1    
    47   19   47 1    
    48   20   48 1    
@<TRIPOS>SUBSTRUCTURE
     1 ****        2 TEMP              0 ****  ****    0 ROOT 
@<TRIPOS>NORMAL
@<TRIPOS>FF_PBC
FORCE_FIELD_SETUP_FEATURE Force Field Setup information
v1.0  0 0.000000 0.000000 0.000000 0.000000 0.000000 0.000000 NONE 0 0 0 0 1 0 0 0 0 0 0 0 0
