#	Name:			PISM00791.1
#	Creating user name:	baoopengkun
#	Creation time:		Tue Jan 08 16:05:24 2019

#	Modifying user name:	baoopengkun
#	Modification time:	Tue Jan 08 16:05:44 2019

@<TRIPOS>MOLECULE
PISM00791.1
   59    63     1     1     0
SMALL
GAST_HUCK


@<TRIPOS>ATOM
      1 C1         20.0281   15.2593  -28.4250 C.ar      1 <1>        -0.0373 
      2 C2         18.1635   16.6188  -27.4648 C.ar      1 <1>        -0.0682 
      3 C3         16.9151   17.2510  -27.5462 C.ar      1 <1>        -0.0412 
      4 C4         16.2294   17.1615  -28.7580 C.ar      1 <1>         0.0661 
      5 C5         16.7735   16.4676  -29.8304 C.ar      1 <1>        -0.0099 
      6 C6         18.0081   15.8256  -29.7675 C.ar      1 <1>        -0.0647 
      7 C7         15.7139   16.6447  -30.8842 C.2       1 <1>        -0.0156 
      8 C8         14.7467   17.3666  -30.3301 C.2       1 <1>         0.1041 
      9 N9         15.0235   17.6807  -29.0922 N.pl3     1 <1>        -0.2676 
     10 C10        14.1670   18.4656  -28.2118 C.3       1 <1>         0.0369 
     11 C11        13.6835   17.5674  -31.3092 C.2       1 <1>         0.1400 
     12 O12        12.6413   18.1892  -31.1800 O.2       1 <1>        -0.4040 
     13 C13        14.1407   16.8456  -32.5113 C.2       1 <1>         0.0306 
     14 C14        15.5171   16.2282  -32.3157 C.3       1 <1>         0.0054 
     15 C15        13.4260   16.7437  -33.6364 C.2       1 <1>         0.0831 
     16 O16        13.9258   16.0596  -34.6758 O.3       1 <1>        -0.2667 
     17 C17        13.0782   16.0570  -35.8377 C.3       1 <1>         0.2400 
     18 C18        12.8615   17.4480  -36.3851 C.2       1 <1>        -0.0007 
     19 C19        11.5601   17.7260  -36.4358 C.2       1 <1>         0.0293 
     20 C20        10.9284   16.5187  -35.9116 C.2       1 <1>         0.2496 
     21 O21        11.7607   15.5528  -35.5395 O.3       1 <1>        -0.2302 
     22 C22        10.8991   18.9914  -36.9099 C.3       1 <1>        -0.0323 
     23 O23         9.7196   16.3998  -35.8140 O.2       1 <1>        -0.3691 
     24 C24        20.2589   14.3306  -27.4062 C.ar      1 <1>        -0.0669 
     25 C25        21.5049   13.7070  -27.2925 C.ar      1 <1>        -0.0438 
     26 C26        22.5383   14.0121  -28.1865 C.ar      1 <1>         0.0403 
     27 C27        22.3036   14.9499  -29.1990 C.ar      1 <1>        -0.0438 
     28 C28        21.0546   15.5655  -29.3227 C.ar      1 <1>        -0.0669 
     29 N29        23.7498   13.4075  -28.0736 N.pl3     1 <1>        -0.3146 
     30 C30        24.3595   13.2110  -26.7580 C.3       1 <1>         0.0153 
     31 C31        24.4599   12.9455  -29.2666 C.3       1 <1>         0.0153 
     32 H1         18.7245   16.6775  -26.5375 H         1 <1>         0.0548 
     33 H2         16.5003   17.7886  -26.7009 H         1 <1>         0.0548 
     34 H3         18.4029   15.2828  -30.6191 H         1 <1>         0.0554 
     35 H4         13.2327   18.7638  -28.7117 H         1 <1>         0.0555 
     36 C36        18.7036   15.9159  -28.5545 C.ar      1 <1>        -0.0395 
     37 H5         14.7004   19.3754  -27.8976 H         1 <1>         0.0555 
     38 H6         13.9113   17.8705  -27.3221 H         1 <1>         0.0555 
     39 C39        16.5997   16.8660  -33.2196 C.3       1 <1>        -0.0510 
     40 H8         15.4872   15.1306  -32.4057 H         1 <1>         0.0507 
     41 H9         12.4499   17.2346  -33.6426 H         1 <1>         0.1132 
     42 H10        13.5424   15.4249  -36.6118 H         1 <1>         0.1214 
     43 H11        13.6598   18.1224  -36.6928 H         1 <1>         0.0706 
     44 H12        10.9986   19.0726  -38.0025 H         1 <1>         0.0347 
     45 H13        11.3760   19.8634  -36.4378 H         1 <1>         0.0347 
     46 H14         9.8304   18.9852  -36.6475 H         1 <1>         0.0347 
     47 H15        19.4677   14.0889  -26.7034 H         1 <1>         0.0582 
     48 H16        21.6597   12.9763  -26.5062 H         1 <1>         0.0518 
     49 H17        23.0933   15.2137  -29.8939 H         1 <1>         0.0518 
     50 H18        20.8840   16.2864  -30.1161 H         1 <1>         0.0582 
     51 H19        24.1136   12.2046  -26.3864 H         1 <1>         0.0478 
     52 H20        24.0059   13.9602  -26.0320 H         1 <1>         0.0478 
     53 H21        25.4545   13.3028  -26.8266 H         1 <1>         0.0478 
     54 H22        25.0232   12.0261  -29.0442 H         1 <1>         0.0478 
     55 H23        25.1681   13.7210  -29.5954 H         1 <1>         0.0478 
     56 H24        23.7636   12.7202  -30.0898 H         1 <1>         0.0478 
     57 H7         17.5937   16.4875  -32.9359 H         1 <1>         0.0265 
     58 H25        16.5929   17.9615  -33.1084 H         1 <1>         0.0265 
     59 H26        16.4174   16.6161  -34.2755 H         1 <1>         0.0265 
@<TRIPOS>BOND
     1   36    1 1    
     2    3    2 ar   
     3    4    3 ar   
     4    5    4 ar   
     5    6    5 ar   
     6    1   24 ar   
     7    5    7 1    
     8    7    8 2    
     9    8    9 1    
    10    4    9 1    
    11    9   10 1    
    12    8   11 1    
    13   11   12 2    
    14   13   11 1    
    15   14   13 1    
    16    7   14 1    
    17   13   15 2    
    18   15   16 1    
    19   16   17 1    
    20   17   18 1    
    21   18   19 2    
    22   20   19 1    
    23   21   20 1    
    24   17   21 1    
    25   19   22 1    
    26   20   23 2    
    27    6   36 ar   
    28   24   25 ar   
    29   25   26 ar   
    30   26   27 ar   
    31   27   28 ar   
    32    1   28 ar   
    33   26   29 1    
    34   29   30 1    
    35   29   31 1    
    36    2   32 1    
    37    3   33 1    
    38    6   34 1    
    39   10   35 1    
    40   10   37 1    
    41    2   36 ar   
    42   10   38 1    
    43   14   39 1    
    44   14   40 1    
    45   15   41 1    
    46   17   42 1    
    47   18   43 1    
    48   22   44 1    
    49   22   45 1    
    50   22   46 1    
    51   24   47 1    
    52   25   48 1    
    53   27   49 1    
    54   28   50 1    
    55   30   51 1    
    56   30   52 1    
    57   30   53 1    
    58   31   54 1    
    59   31   55 1    
    60   31   56 1    
    61   39   57 1    
    62   39   58 1    
    63   39   59 1    
@<TRIPOS>SUBSTRUCTURE
     1 ****        2 TEMP              0 ****  ****    0 ROOT 
@<TRIPOS>NORMAL
@<TRIPOS>FF_PBC
FORCE_FIELD_SETUP_FEATURE Force Field Setup information
v1.0  0 0.000000 0.000000 0.000000 0.000000 0.000000 0.000000 NONE 0 0 0 0 1 0 0 0 0 0 0 0 0
