#	Name:			PISM00610
#	Creating user name:	baoopengkun
#	Creation time:		Mon Dec 10 10:02:13 2018

#	Modifying user name:	baoopengkun
#	Modification time:	Mon Dec 10 10:02:28 2018

@<TRIPOS>MOLECULE
PISM00610
   44    47     1     2     0
SMALL
GAST_HUCK


@<TRIPOS>ATOM
      1 C1          3.6311    9.6889   -6.6789 C.ar      1 <1>        -0.0348 
      2 C2          2.7690   10.1931   -5.7006 C.ar      1 <1>        -0.0180 
      3 C3          2.3752    9.3846   -4.6308 C.ar      1 <1>         0.0714 
      4 C4          2.8542    8.0755   -4.5331 C.ar      1 <1>        -0.0180 
      5 C5          3.7168    7.5729   -5.5114 C.ar      1 <1>        -0.0348 
      6 C6          4.0920    8.3706   -6.5973 C.ar      1 <1>         0.0068 
      7 C7          5.0086    7.7927   -7.6852 C.3       1 <1>         0.1921 
      8 C8          6.4849    7.9652   -7.2489 C.3       1 <1>         0.1073 
      9 N9          7.4868    7.4126   -8.1511 N.pl3     1 <1>        -0.1814 
     10 N10         8.8280    7.3577   -7.9145 N.2       1 <1>        -0.1908 
     11 C11         9.4884    6.8119   -8.8669 C.2       1 <1>         0.0618 
     12 N12         8.4272    6.4990   -9.7832 N.2       1 <1>        -0.2870 
     13 C13         7.3204    6.8637   -9.3165 C.2       1 <1>         0.1270 
     14 O14         4.7533    8.3784   -8.9679 O.3       1 <1>        -0.3814 
     15 C15         3.5144    7.8279   -9.4229 C.3       1 <1>         0.0672 
     16 C16         3.6009    6.3772   -8.8859 C.3       1 <1>         0.1005 
     17 O17         4.6791    6.4192   -7.9347 O.3       1 <1>        -0.3757 
     18 C18         2.2670    5.8749   -8.2775 C.3       1 <1>         0.0982 
     19 O19         2.4021    4.4956   -7.8922 O.3       1 <1>        -0.3136 
     20 C20         1.2171    3.9040   -7.4510 C.ar      1 <1>         0.1200 
     21 C21         0.8761    3.9333   -6.0952 C.ar      1 <1>         0.0685 
     22 C22        -0.3139    3.3428   -5.6605 C.ar      1 <1>        -0.0564 
     23 C23        -1.1636    2.7194   -6.5789 C.ar      1 <1>        -0.0718 
     24 C24        -0.8210    2.6863   -7.9337 C.ar      1 <1>        -0.0564 
     25 C25         0.3682    3.2779   -8.3689 C.ar      1 <1>         0.0685 
     26 Cl26        1.2832   10.0117   -3.4131 Cl        1 <1>        -0.0420 
     27 H1          3.9428   10.3240   -7.5026 H         1 <1>         0.0849 
     28 H2          2.4040   11.2129   -5.7697 H         1 <1>         0.0703 
     29 H3          2.5555    7.4518   -3.6966 H         1 <1>         0.0703 
     30 H4          4.0980    6.5596   -5.4286 H         1 <1>         0.0849 
     31 H5          6.6244    7.4749   -6.2741 H         1 <1>         0.0595 
     32 H6          6.6945    9.0393   -7.1387 H         1 <1>         0.0595 
     33 H7         10.5590    6.6344   -8.9558 H         1 <1>         0.0863 
     34 H8          6.3826    6.7193   -9.8483 H         1 <1>         0.1361 
     35 H9          3.4271    7.8914  -10.5187 H         1 <1>         0.0576 
     36 H10         2.6789    8.3808   -8.9657 H         1 <1>         0.0576 
     37 H11         3.9105    5.6848   -9.6859 H         1 <1>         0.0635 
     38 H12         1.4791    5.9742   -9.0418 H         1 <1>         0.0641 
     39 H13         1.9951    6.4869   -7.4041 H         1 <1>         0.0641 
     40 Cl40        1.9346    4.7080   -4.9350 Cl        1 <1>        -0.0788 
     41 H41        -0.5767    3.3690   -4.6078 H         1 <1>         0.0596 
     42 H42        -2.0882    2.2612   -6.2404 H         1 <1>         0.0524 
     43 H43        -1.4770    2.2015   -8.6495 H         1 <1>         0.0596 
     44 Cl44        0.7932    3.2339  -10.0684 Cl        1 <1>        -0.0788 
@<TRIPOS>BOND
     1    2    1 ar   
     2    2    3 ar   
     3    3    4 ar   
     4    4    5 ar   
     5    5    6 ar   
     6    1    6 ar   
     7    6    7 1    
     8    7    8 1    
     9    8    9 1    
    10    9   10 1    
    11   10   11 2    
    12   11   12 1    
    13   12   13 2    
    14    9   13 1    
    15    7   14 1    
    16   14   15 1    
    17   15   16 1    
    18   16   17 1    
    19    7   17 1    
    20   16   18 1    
    21   18   19 1    
    22   19   20 1    
    23   20   21 ar   
    24   21   22 ar   
    25   22   23 ar   
    26   23   24 ar   
    27   24   25 ar   
    28   20   25 ar   
    29    3   26 1    
    30    1   27 1    
    31    2   28 1    
    32    4   29 1    
    33    5   30 1    
    34    8   31 1    
    35    8   32 1    
    36   11   33 1    
    37   13   34 1    
    38   15   35 1    
    39   15   36 1    
    40   16   37 1    
    41   18   38 1    
    42   18   39 1    
    43   21   40 1    
    44   22   41 1    
    45   23   42 1    
    46   24   43 1    
    47   25   44 1    
@<TRIPOS>SUBSTRUCTURE
     1 ****        2 TEMP              0 ****  ****    0 ROOT 
@<TRIPOS>NORMAL
@<TRIPOS>FF_PBC
FORCE_FIELD_SETUP_FEATURE Force Field Setup information
v1.0  0 0.000000 0.000000 0.000000 0.000000 0.000000 0.000000 NONE 0 0 0 0 1 0 0 0 0 0 0 0 0
@<TRIPOS>RENDERING_ATTRS
ANTIALIASED_LINES 
*
