#	Name:			PISM00615
#	Creating user name:	baoopengkun
#	Creation time:		Mon Dec 10 10:35:14 2018

#	Modifying user name:	baoopengkun
#	Modification time:	Mon Dec 10 10:35:27 2018

@<TRIPOS>MOLECULE
PISM00615
   51    54     1     2     0
SMALL
GAST_HUCK


@<TRIPOS>ATOM
      1 C1         -3.8077    8.3204   -8.7368 C.ar      1 <1>        -0.0348 
      2 C2         -4.7411    8.2225   -9.7730 C.ar      1 <1>        -0.0180 
      3 C3         -5.3360    6.9922  -10.0657 C.ar      1 <1>         0.0714 
      4 C4         -5.0052    5.8611   -9.3146 C.ar      1 <1>        -0.0180 
      5 C5         -4.0729    5.9597   -8.2781 C.ar      1 <1>        -0.0348 
      6 C6         -3.4585    7.1852   -7.9980 C.ar      1 <1>         0.0068 
      7 C7         -2.4080    7.2711   -6.8822 C.3       1 <1>         0.1921 
      8 C8         -3.1207    7.4949   -5.5254 C.3       1 <1>         0.1073 
      9 N9         -2.2602    7.5151   -4.3496 N.pl3     1 <1>        -0.1814 
     10 N10        -2.6814    7.5927   -3.0556 N.2       1 <1>        -0.1908 
     11 C11        -1.7205    7.5804   -2.2086 C.2       1 <1>         0.0618 
     12 N12        -0.5893    7.4828   -3.0887 N.2       1 <1>        -0.2870 
     13 C13        -0.9644    7.4483   -4.2861 C.2       1 <1>         0.1270 
     14 O14        -1.4124    8.2710   -7.1348 O.3       1 <1>        -0.3814 
     15 C15        -0.5615    7.7571   -8.1649 C.3       1 <1>         0.0672 
     16 C16        -0.5902    6.2312   -7.8887 C.3       1 <1>         0.1000 
     17 O17        -1.5972    6.0908   -6.8724 O.3       1 <1>        -0.3758 
     18 C18        -0.8858    5.3918   -9.1592 C.3       1 <1>         0.0952 
     19 O19        -1.0424    4.0110   -8.7907 O.3       1 <1>        -0.3192 
     20 C20        -1.3246    3.1556   -9.8574 C.ar      1 <1>         0.1198 
     21 C21        -2.6114    2.6289   -9.9945 C.ar      1 <1>        -0.0415 
     22 C22        -2.9112    1.7720  -11.0574 C.ar      1 <1>        -0.0819 
     23 C23        -1.9194    1.4382  -11.9842 C.ar      1 <1>        -0.0819 
     24 C24        -0.6309    1.9629  -11.8464 C.ar      1 <1>        -0.0415 
     25 C25        -0.3299    2.8183  -10.7829 C.ar      1 <1>         0.1197 
     26 Cl26       -6.4960    6.8676  -11.3724 Cl        1 <1>        -0.0420 
     27 H1         -3.3542    9.2796   -8.5063 H         1 <1>         0.0849 
     28 H2         -5.0058    9.1016  -10.3519 H         1 <1>         0.0703 
     29 H3         -5.4726    4.9074   -9.5379 H         1 <1>         0.0703 
     30 H4         -3.8219    5.0806   -7.6917 H         1 <1>         0.0849 
     31 H5         -3.8531    6.6883   -5.3730 H         1 <1>         0.0595 
     32 H6         -3.6546    8.4557   -5.5645 H         1 <1>         0.0595 
     33 H7         -1.7538    7.6300   -1.1214 H         1 <1>         0.0863 
     34 H8         -0.2667    7.3720   -5.1175 H         1 <1>         0.1361 
     35 H9          0.4449    8.1984   -8.0969 H         1 <1>         0.0576 
     36 H10        -0.9951    8.0082   -9.1453 H         1 <1>         0.0576 
     37 H11         0.3546    5.8799   -7.4426 H         1 <1>         0.0635 
     38 H12        -0.0487    5.5179   -9.8638 H         1 <1>         0.0635 
     39 H13        -1.8068    5.7403   -9.6490 H         1 <1>         0.0635 
     40 H40        -3.3760    2.8886   -9.2703 H         1 <1>         0.0509 
     41 H41        -3.9129    1.3663  -11.1628 H         1 <1>         0.0495 
     42 H42        -2.1494    0.7724  -12.8105 H         1 <1>         0.0495 
     43 H43         0.1407    1.7090  -12.5656 H         1 <1>         0.0509 
     44 O44         0.9614    3.3338  -10.6521 O.3       1 <1>        -0.3220 
     45 C45         1.9027    2.4596  -10.0070 C.3       1 <1>         0.0651 
     46 C46         1.5082    2.1805   -8.5349 C.3       1 <1>        -0.0376 
     47 H14         2.8784    2.9708  -10.0265 H         1 <1>         0.0606 
     48 H15         1.9993    1.5142  -10.5662 H         1 <1>         0.0606 
     49 H16         2.2914    1.5867   -8.0380 H         1 <1>         0.0255 
     50 H17         0.5623    1.6203   -8.4831 H         1 <1>         0.0255 
     51 H18         1.3886    3.1320   -7.9938 H         1 <1>         0.0255 
@<TRIPOS>BOND
     1    2    1 ar   
     2    2    3 ar   
     3    3    4 ar   
     4    4    5 ar   
     5    5    6 ar   
     6    1    6 ar   
     7    6    7 1    
     8    7    8 1    
     9    8    9 1    
    10    9   10 1    
    11   10   11 2    
    12   11   12 1    
    13   12   13 2    
    14    9   13 1    
    15    7   14 1    
    16   14   15 1    
    17   15   16 1    
    18   16   17 1    
    19    7   17 1    
    20   16   18 1    
    21   18   19 1    
    22   19   20 1    
    23   20   21 ar   
    24   21   22 ar   
    25   22   23 ar   
    26   23   24 ar   
    27   24   25 ar   
    28   20   25 ar   
    29    3   26 1    
    30    1   27 1    
    31    2   28 1    
    32    4   29 1    
    33    5   30 1    
    34    8   31 1    
    35    8   32 1    
    36   11   33 1    
    37   13   34 1    
    38   15   35 1    
    39   15   36 1    
    40   16   37 1    
    41   18   38 1    
    42   18   39 1    
    43   21   40 1    
    44   22   41 1    
    45   23   42 1    
    46   24   43 1    
    47   25   44 1    
    48   44   45 1    
    49   45   46 1    
    50   45   47 1    
    51   45   48 1    
    52   46   49 1    
    53   46   50 1    
    54   46   51 1    
@<TRIPOS>SUBSTRUCTURE
     1 ****        2 TEMP              0 ****  ****    0 ROOT 
@<TRIPOS>NORMAL
@<TRIPOS>FF_PBC
FORCE_FIELD_SETUP_FEATURE Force Field Setup information
v1.0  0 0.000000 0.000000 0.000000 0.000000 0.000000 0.000000 NONE 0 0 0 0 1 0 0 0 0 0 0 0 0
@<TRIPOS>RENDERING_ATTRS
ANTIALIASED_LINES 
*
