#	Name:			PISM00364
#	Creating user name:	malab
#	Creation time:		Tue Apr 02 20:32:38 2019

#	Modifying user name:	malab
#	Modification time:	Tue Apr 02 20:40:42 2019

@<TRIPOS>MOLECULE
PISM00364
   53    55     1     1     0
SMALL
GAST_HUCK


@<TRIPOS>ATOM
      1 N1          6.5088   -0.9983   -7.3183 N.2       1 <1>        -0.1730 
      2 C2          7.0987   -1.2553   -8.4243 C.2       1 <1>         0.0653 
      3 N3          6.1704   -0.6636   -9.3414 N.2       1 <1>        -0.2827 
      4 C4          5.2013   -0.1577   -8.7262 C.2       1 <1>         0.1489 
      5 N5          5.3262   -0.3242   -7.4378 N.pl3     1 <1>        -0.1236 
      6 C6          4.5259    0.0655   -6.4730 C.2       1 <1>         0.1347 
      7 C7          4.9916   -0.3302   -5.0754 C.3       1 <1>         0.1322 
      8 O8          6.4027   -0.0993   -4.9034 O.3       1 <1>        -0.3716 
      9 N9         -1.1219    1.8476   -2.0944 N.2       1 <1>        -0.0916 
     10 N10        -1.7895    2.5278   -1.1481 N.2       1 <1>        -0.2262 
     11 C11         3.3890    0.7526   -6.6905 C.2       1 <1>        -0.0370 
     12 C12         2.9046    2.2330   -4.6915 C.ar      1 <1>        -0.0693 
     13 C13         2.0680    2.6495   -3.6518 C.ar      1 <1>        -0.0312 
     14 C14         0.7573    2.1642   -3.5588 C.ar      1 <1>         0.1107 
     15 C15         0.3177    1.2202   -4.4932 C.ar      1 <1>        -0.0312 
     16 C16         1.1632    0.7800   -5.5153 C.ar      1 <1>        -0.0693 
     17 N17        -0.0965    2.5756   -2.5885 N.pl3     1 <1>        -0.1418 
     18 C18         2.4708    1.2650   -5.6023 C.ar      1 <1>        -0.0552 
     19 C19         4.5611   -1.7746   -4.6409 C.3       1 <1>         0.0043 
     20 C20         5.0838   -2.8798   -5.6069 C.3       1 <1>        -0.0552 
     21 C21         5.1169   -2.0632   -3.2133 C.3       1 <1>        -0.0552 
     22 C22         3.0066   -1.8696   -4.5941 C.3       1 <1>        -0.0552 
     23 C23        -1.0832    3.7830   -1.1056 C.2       1 <1>         0.0385 
     24 C24        -0.0870    3.7407   -1.9968 C.2       1 <1>         0.0826 
     25 C25        -1.4869    4.8968   -0.1735 C.3       1 <1>        -0.0185 
     26 H1          8.0376   -1.7742   -8.6127 H         1 <1>         0.0879 
     27 H2          4.4168    0.3310   -9.2997 H         1 <1>         0.1387 
     28 H3          4.5608    0.3447   -4.3261 H         1 <1>         0.0846 
     29 H4          6.9314   -0.5983   -5.5184 H         1 <1>         0.2141 
     30 H5          3.0197    1.0056   -7.6799 H         1 <1>         0.0306 
     31 H6          3.8955    2.6659   -4.7921 H         1 <1>         0.0534 
     32 H7          2.4583    3.3457   -2.9187 H         1 <1>         0.0577 
     33 H8         -0.6914    0.8265   -4.4282 H         1 <1>         0.0577 
     34 H9          0.8018    0.0589   -6.2419 H         1 <1>         0.0534 
     35 H10         4.7459   -3.8718   -5.2701 H         1 <1>         0.0238 
     36 H11         6.1826   -2.9007   -5.6373 H         1 <1>         0.0238 
     37 H12         4.7007   -2.7283   -6.6268 H         1 <1>         0.0238 
     38 H13         4.8076   -3.0611   -2.8663 H         1 <1>         0.0238 
     39 H14         4.7455   -1.3210   -2.4901 H         1 <1>         0.0238 
     40 H15         6.2170   -2.0281   -3.2092 H         1 <1>         0.0238 
     41 H16         2.5809   -1.7267   -5.5979 H         1 <1>         0.0238 
     42 H17         2.5847   -1.1097   -3.9188 H         1 <1>         0.0238 
     43 H18         2.6860   -2.8583   -4.2314 H         1 <1>         0.0238 
     44 H19         0.6009    4.5625   -2.1832 H         1 <1>         0.0901 
     45 H20        -1.4502    4.4963    0.8517 H         1 <1>         0.0382 
     46 C46        -0.6010    6.1680   -0.2653 C.3       1 <1>        -0.0490 
     47 H21        -2.5314    5.1577   -0.4046 H         1 <1>         0.0382 
     48 H22        -0.6425    6.5747   -1.2896 H         1 <1>         0.0279 
     49 H23         0.4447    5.9068   -0.0310 H         1 <1>         0.0279 
     50 C50        -1.0796    7.2599    0.7269 C.3       1 <1>        -0.0639 
     51 H24        -2.1169    7.5547    0.5033 H         1 <1>         0.0231 
     52 H25        -0.4378    8.1518    0.6480 H         1 <1>         0.0231 
     53 H26        -1.0336    6.8865    1.7618 H         1 <1>         0.0231 
@<TRIPOS>BOND
     1    2    1 2    
     2    2    3 1    
     3    3    4 2    
     4    4    5 1    
     5    1    5 1    
     6    5    6 1    
     7    6    7 1    
     8    7    8 1    
     9   17    9 1    
    10    9   10 2    
    11   10   23 1    
    12    6   11 2    
    13   18   12 ar   
    14   12   13 ar   
    15   13   14 ar   
    16   15   14 ar   
    17   16   15 ar   
    18   18   16 ar   
    19   11   18 1    
    20   14   17 1    
    21    7   19 1    
    22   19   20 1    
    23   19   21 1    
    24   19   22 1    
    25   24   23 2    
    26   17   24 1    
    27   23   25 1    
    28    2   26 1    
    29    4   27 1    
    30    7   28 1    
    31    8   29 1    
    32   11   30 1    
    33   12   31 1    
    34   13   32 1    
    35   15   33 1    
    36   16   34 1    
    37   20   35 1    
    38   20   36 1    
    39   20   37 1    
    40   21   38 1    
    41   21   39 1    
    42   21   40 1    
    43   22   41 1    
    44   22   42 1    
    45   22   43 1    
    46   24   44 1    
    47   25   45 1    
    48   25   46 1    
    49   25   47 1    
    50   46   48 1    
    51   46   49 1    
    52   46   50 1    
    53   50   51 1    
    54   50   52 1    
    55   50   53 1    
@<TRIPOS>SUBSTRUCTURE
     1 ****        2 TEMP              0 ****  ****    0 ROOT 
@<TRIPOS>NORMAL
@<TRIPOS>FF_PBC
FORCE_FIELD_SETUP_FEATURE Force Field Setup information
v1.0  0 0.000000 0.000000 0.000000 0.000000 0.000000 0.000000 NONE 0 0 0 0 1 0 0 0 0 0 0 0 0
