#	Name:			PISM01037.1
#	Creating user name:	malab
#	Creation time:		Thu Jul 04 18:17:05 2019

#	Modifying user name:	malab
#	Modification time:	Thu Jul 04 18:21:11 2019

@<TRIPOS>MOLECULE
PISM01037.1
   41    42     1     1     0
SMALL
GAST_HUCK


@<TRIPOS>ATOM
      1 N1          3.9049    9.7523   30.3342 N.2       1 <1>        -0.1732 
      2 C2          4.9662   10.0700   30.9736 C.2       1 <1>         0.0652 
      3 N3          5.1299   11.4173   30.5165 N.2       1 <1>        -0.2828 
      4 C4          4.2160   11.7277   29.7152 C.2       1 <1>         0.1487 
      5 N5          3.3895   10.7327   29.5330 N.pl3     1 <1>        -0.1240 
      6 C6          2.3158   10.6766   28.7750 C.2       1 <1>         0.1339 
      7 C7          1.6038    9.3246   28.8045 C.3       1 <1>         0.1318 
      8 C8          2.1591    8.3034   27.7467 C.3       1 <1>         0.0042 
      9 C9          3.6868    8.0634   27.9474 C.3       1 <1>        -0.0552 
     10 C10         1.4456    6.9205   27.8722 C.3       1 <1>        -0.0552 
     11 C11         1.9334    8.8417   26.3061 C.3       1 <1>        -0.0552 
     12 O12         0.1815    9.5139   28.6861 O.3       1 <1>        -0.3718 
     13 C13         1.8938   11.7277   28.0440 C.2       1 <1>        -0.0380 
     14 C14         0.6496   11.7928   27.1846 C.ar      1 <1>        -0.0563 
     15 C15         0.7660   11.8647   25.7930 C.ar      1 <1>        -0.0730 
     16 C16        -0.3758   11.8498   24.9866 C.ar      1 <1>        -0.0680 
     17 C17        -1.6492   11.8105   25.5656 C.ar      1 <1>        -0.0529 
     18 C18        -1.7655   11.8013   26.9597 C.ar      1 <1>        -0.0680 
     19 C19        -0.6226   11.8170   27.7641 C.ar      1 <1>        -0.0730 
     20 C20        -2.9104   11.7808   24.6938 C.3       1 <1>        -0.0343 
     21 H1          5.5692    9.4838   31.6656 H         1 <1>         0.0879 
     22 H2          4.2244   12.7307   29.2945 H         1 <1>         0.1386 
     23 H3          1.7470    8.8965   29.8113 H         1 <1>         0.0844 
     24 H4          3.8831    7.6372   28.9427 H         1 <1>         0.0238 
     25 H5          4.2596    8.9962   27.8397 H         1 <1>         0.0238 
     26 H6          4.0723    7.3560   27.1972 H         1 <1>         0.0238 
     27 H7          1.9296    6.1716   27.2264 H         1 <1>         0.0238 
     28 H8          0.3918    6.9728   27.5630 H         1 <1>         0.0238 
     29 H9          1.4913    6.5540   28.9091 H         1 <1>         0.0238 
     30 H10         2.2354    8.0939   25.5570 H         1 <1>         0.0238 
     31 H11         2.5355    9.7451   26.1387 H         1 <1>         0.0238 
     32 H12         0.8715    9.0812   26.1442 H         1 <1>         0.0238 
     33 H13        -0.3559    8.7457   28.8435 H         1 <1>         0.2141 
     34 H14         2.4224   12.6744   27.9955 H         1 <1>         0.0302 
     35 H15         1.7464   11.9340   25.3331 H         1 <1>         0.0531 
     36 H16        -0.2659   11.8685   23.9073 H         1 <1>         0.0540 
     37 H17        -2.7463   11.7815   27.4239 H         1 <1>         0.0540 
     38 H18        -0.7242   11.8511   28.8444 H         1 <1>         0.0531 
     39 H19        -2.7035   12.1393   23.6743 H         1 <1>         0.0379 
     40 H20        -3.6907   12.4205   25.1331 H         1 <1>         0.0379 
     41 H21        -3.2812   10.7464   24.6409 H         1 <1>         0.0379 
@<TRIPOS>BOND
     1    2    1 2    
     2    2    3 1    
     3    3    4 2    
     4    4    5 1    
     5    1    5 1    
     6    5    6 1    
     7    6    7 1    
     8    7    8 1    
     9    8    9 1    
    10    8   10 1    
    11    8   11 1    
    12    7   12 1    
    13    6   13 2    
    14   13   14 1    
    15   14   15 ar   
    16   15   16 ar   
    17   16   17 ar   
    18   17   18 ar   
    19   18   19 ar   
    20   14   19 ar   
    21   17   20 1    
    22    2   21 1    
    23    4   22 1    
    24    7   23 1    
    25    9   24 1    
    26    9   25 1    
    27    9   26 1    
    28   10   27 1    
    29   10   28 1    
    30   10   29 1    
    31   11   30 1    
    32   11   31 1    
    33   11   32 1    
    34   12   33 1    
    35   13   34 1    
    36   15   35 1    
    37   16   36 1    
    38   18   37 1    
    39   19   38 1    
    40   20   39 1    
    41   20   40 1    
    42   20   41 1    
@<TRIPOS>SUBSTRUCTURE
     1 ****        2 TEMP              0 ****  ****    0 ROOT 
@<TRIPOS>NORMAL
@<TRIPOS>FF_PBC
FORCE_FIELD_SETUP_FEATURE Force Field Setup information
v1.0  0 0.000000 0.000000 0.000000 0.000000 0.000000 0.000000 NONE 0 0 0 0 1 0 0 0 0 0 0 0 0
