#	Name:			PISM00917.1
#	Creating user name:	baoopengkun
#	Creation time:		Fri Dec 14 10:31:16 2018

#	Modifying user name:	baoopengkun
#	Modification time:	Fri Dec 14 10:52:41 2018

@<TRIPOS>MOLECULE
PISM00917.1
   41    44     1     1     0
SMALL
GAST_HUCK


@<TRIPOS>ATOM
      1 C1         27.7839   14.8266  -14.4812 C.ar      1 <1>         0.0868 
      2 C2         29.1614   14.7185  -14.2469 C.ar      1 <1>        -0.0295 
      3 C3         29.6591   14.0071  -13.1443 C.ar      1 <1>        -0.0620 
      4 C4         28.7929   13.3709  -12.2464 C.ar      1 <1>        -0.0488 
      5 C5         27.4276   13.4393  -12.5197 C.ar      1 <1>         0.0636 
      6 C6         26.9369   14.1175  -13.6264 C.ar      1 <1>         0.0945 
      7 C7         25.4454   13.8884  -13.6072 C.2       1 <1>         0.2371 
      8 N8         25.1081   13.1819  -12.5117 N.am      1 <1>        -0.1423 
      9 C9         26.2178   12.8808  -11.8131 C.2       1 <1>         0.2414 
     10 O10        24.6787   14.2845  -14.4677 O.2       1 <1>        -0.3740 
     11 O11        26.2608   12.2523  -10.7700 O.2       1 <1>        -0.3670 
     12 C12        23.7530   12.8447  -12.1151 C.3       1 <1>         0.2213 
     13 O13        23.1376   14.0257  -11.5628 O.3       1 <1>        -0.2348 
     14 C14        22.1161   14.2952  -12.3664 C.2       1 <1>         0.2491 
     15 C15        21.9363   13.3751  -13.4838 C.2       1 <1>         0.0288 
     16 C16        22.9171   12.4893  -13.3216 C.2       1 <1>        -0.0059 
     17 C17        20.8838   13.4115  -14.5572 C.3       1 <1>        -0.0323 
     18 O18        21.3753   15.2434  -12.1709 O.2       1 <1>        -0.3691 
     19 N19        27.3125   15.5971  -15.4901 N.pl3     1 <1>        -0.2335 
     20 C20        26.3782   16.4951  -15.3211 C.2       1 <1>         0.2315 
     21 C21        25.7518   16.8202  -13.9790 C.ar      1 <1>         0.0559 
     22 O22        25.9729   17.1231  -16.2856 O.2       1 <1>        -0.3658 
     23 C23        24.3743   17.0569  -13.9111 C.ar      1 <1>        -0.0412 
     24 C24        23.7497   17.2549  -12.6767 C.ar      1 <1>        -0.0560 
     25 C25        24.4998   17.2070  -11.4989 C.ar      1 <1>        -0.0574 
     26 C26        25.8851   17.0359  -11.5650 C.ar      1 <1>        -0.0560 
     27 C27        26.5127   16.8886  -12.8054 C.ar      1 <1>        -0.0412 
     28 H1         29.8558   15.2021  -14.9267 H         1 <1>         0.0578 
     29 H2         30.7314   13.9499  -12.9822 H         1 <1>         0.0632 
     30 H3         29.1612   12.8415  -11.3737 H         1 <1>         0.0584 
     31 H4         23.7299   12.0285  -11.3740 H         1 <1>         0.1152 
     32 H5         23.1007   11.6347  -13.9712 H         1 <1>         0.0702 
     33 H6         21.3217   13.8179  -15.4811 H         1 <1>         0.0347 
     34 H7         20.0456   14.0526  -14.2455 H         1 <1>         0.0347 
     35 H8         20.5043   12.3974  -14.7521 H         1 <1>         0.0347 
     36 H9         27.7063   15.4746  -16.4354 H         1 <1>         0.2125 
     37 H10        23.7826   17.0767  -14.8209 H         1 <1>         0.0671 
     38 H11        22.6814   17.4428  -12.6328 H         1 <1>         0.0629 
     39 H12        24.0067   17.3056  -10.5366 H         1 <1>         0.0654 
     40 H13        26.4734   17.0209  -10.6524 H         1 <1>         0.0629 
     41 H14        27.5953   16.8345  -12.8469 H         1 <1>         0.0671 
@<TRIPOS>BOND
     1    2    1 ar   
     2    2    3 ar   
     3    3    4 ar   
     4    4    5 ar   
     5    6    5 ar   
     6    1    6 ar   
     7    6    7 1    
     8    7    8 am   
     9    9    8 am   
    10    5    9 1    
    11    7   10 2    
    12    9   11 2    
    13    8   12 1    
    14   12   13 1    
    15   13   14 1    
    16   15   14 1    
    17   16   15 2    
    18   12   16 1    
    19   15   17 1    
    20   14   18 2    
    21    1   19 1    
    22   19   20 1    
    23   20   21 1    
    24   20   22 2    
    25   21   23 ar   
    26   23   24 ar   
    27   24   25 ar   
    28   25   26 ar   
    29   26   27 ar   
    30   21   27 ar   
    31    2   28 1    
    32    3   29 1    
    33    4   30 1    
    34   12   31 1    
    35   16   32 1    
    36   17   33 1    
    37   17   34 1    
    38   17   35 1    
    39   19   36 1    
    40   23   37 1    
    41   24   38 1    
    42   25   39 1    
    43   26   40 1    
    44   27   41 1    
@<TRIPOS>SUBSTRUCTURE
     1 ****        2 TEMP              0 ****  ****    0 ROOT 
@<TRIPOS>NORMAL
@<TRIPOS>FF_PBC
FORCE_FIELD_SETUP_FEATURE Force Field Setup information
v1.0  0 0.000000 0.000000 0.000000 0.000000 0.000000 0.000000 NONE 0 0 0 0 1 0 0 0 0 0 0 0 0
