#	Name:			PISM00145
#	Creating user name:	14062
#	Creation time:		Sat Oct 19 22:17:11 2019

#	Modifying user name:	14062
#	Modification time:	Sat Oct 19 22:19:36 2019

@<TRIPOS>MOLECULE
PISM00145
   30    31     1     1     0
SMALL
GAST_HUCK


@<TRIPOS>ATOM
      1 C1         -5.8842   -0.1438    6.8867 C.2       1 BENZYL      0.2647 
      2 O2         -6.7661   -0.3907    6.0793 O.2       1 BENZYL     -0.3550 
      3 O3         -6.1729    0.5323    8.0008 O.3       1 BENZYL     -0.2929 
      4 C4         -4.4578   -0.5772    6.6214 C.ar      1 BENZYL      0.0795 
      5 C5         -4.1591   -1.5938    5.7057 C.ar      1 BENZYL      0.0545 
      6 C6         -2.8296   -1.8443    5.3495 C.ar      1 BENZYL     -0.0379 
      7 C7         -1.7904   -1.1517    5.9763 C.ar      1 BENZYL     -0.0518 
      8 C8         -2.0823   -0.2164    6.9723 C.ar      1 BENZYL     -0.0516 
      9 C9         -3.4127    0.0651    7.2957 C.ar      1 BENZYL     -0.0353 
     10 C1         -5.2480   -2.4517    5.1016 C.2       1 BENZYL      0.1629 
     11 C2         -5.4051   -2.5969    3.6021 C.ar      1 BENZYL      0.0281 
     12 C3         -4.7489   -1.7288    2.7224 C.ar      1 BENZYL     -0.0498 
     13 C4         -4.8750   -1.9019    1.3416 C.ar      1 BENZYL     -0.0488 
     14 C5         -5.6772   -2.9253    0.8307 C.ar      1 BENZYL      0.0458 
     15 C6         -6.3627   -3.7809    1.7008 C.ar      1 BENZYL     -0.0264 
     16 C7         -6.2206   -3.6091    3.0831 C.ar      1 BENZYL     -0.0418 
     17 O17        -5.9997   -3.0483    5.8558 O.2       1 BENZYL     -0.3652 
     18 C18        -7.2567   -4.8917    1.1333 C.3       1 BENZYL     -0.0296 
     19 Cl19       -5.8147   -3.1226   -0.9059 Cl        1 BENZYL     -0.0728 
     20 H1         -7.0985    0.7449    8.0516 H         1 BENZYL      0.2524 
     21 H2         -2.6003   -2.5865    4.5908 H         1 BENZYL      0.0682 
     22 H3         -0.7593   -1.3430    5.6939 H         1 BENZYL      0.0665 
     23 H4         -1.2762    0.2931    7.4922 H         1 BENZYL      0.0665 
     24 H5         -3.6294    0.7943    8.0702 H         1 BENZYL      0.0684 
     25 H6         -4.1428   -0.9121    3.1000 H         1 BENZYL      0.0612 
     26 H7         -4.3500   -1.2390    0.6612 H         1 BENZYL      0.0617 
     27 H8         -6.7466   -4.2685    3.7654 H         1 BENZYL      0.0607 
     28 H9         -8.0415   -4.4429    0.5059 H         1 BENZYL      0.0393 
     29 H10        -7.7406   -5.4803    1.9270 H         1 BENZYL      0.0393 
     30 H11        -6.6474   -5.5710    0.5185 H         1 BENZYL      0.0393 
@<TRIPOS>BOND
     1    1    2 2    
     2    1    3 1    
     3    4    1 1    
     4    5    4 ar   
     5    5    6 ar   
     6    6    7 ar   
     7    7    8 ar   
     8    9    8 ar   
     9    4    9 ar   
    10   10   11 1    
    11   11   12 ar   
    12   11   16 ar   
    13   16   15 ar   
    14   15   14 ar   
    15   13   14 ar   
    16   12   13 ar   
    17   10    5 1    
    18   10   17 2    
    19   15   18 1    
    20   14   19 1    
    21    3   20 1    
    22    6   21 1    
    23    7   22 1    
    24    8   23 1    
    25    9   24 1    
    26   12   25 1    
    27   13   26 1    
    28   16   27 1    
    29   18   28 1    
    30   18   29 1    
    31   18   30 1    
@<TRIPOS>SUBSTRUCTURE
     1 BENZYL     10 PERM              0 ****  ****    0 ROOT 
@<TRIPOS>NORMAL
@<TRIPOS>FF_PBC
FORCE_FIELD_SETUP_FEATURE Force Field Setup information
v1.0  0 0.000000 0.000000 0.000000 0.000000 0.000000 0.000000 NONE 0 0 0 0 1 0 0 0 0 0 0 0 0
