#	Name:			PISM01165
#	Creating user name:	baoopengkun
#	Creation time:		Tue Dec 18 16:35:47 2018

#	Modifying user name:	baoopengkun
#	Modification time:	Tue Dec 18 16:39:18 2018

@<TRIPOS>MOLECULE
PISM01165
   58    65     1     1     0
SMALL
GAST_HUCK


@<TRIPOS>ATOM
      1 O1          4.4472   24.5512  -14.1425 O.2       1 <1>        -0.3964 
      2 C2          4.2627   25.1726  -13.1112 C.2       1 <1>         0.1871 
      3 N3          3.1765   25.0724  -12.3283 N.am      1 <1>        -0.2790 
      4 C4          3.2238   25.9414  -11.1490 C.3       1 <1>         0.0603 
      5 C5          4.5811   26.6241  -11.3551 C.ar      1 <1>        -0.0168 
      6 C6          5.2136   26.1732  -12.5158 C.ar      1 <1>         0.0320 
      7 C7          6.4719   26.6596  -12.8894 C.ar      1 <1>        -0.0018 
      8 C8          7.0781   27.6488  -12.1200 C.ar      1 <1>         0.0952 
      9 C9          6.4477   28.1111  -10.9459 C.ar      1 <1>         0.0976 
     10 C10         5.2190   27.5830  -10.5619 C.ar      1 <1>         0.0011 
     11 C11         4.9220   28.2597   -9.2795 C.ar      1 <1>        -0.0075 
     12 C12         6.0009   29.1120   -9.0466 C.ar      1 <1>         0.0693 
     13 N13         6.9064   29.0405  -10.0468 N.pl3     1 <1>        -0.2319 
     14 C14         3.8522   28.1722   -8.3893 C.ar      1 <1>        -0.0696 
     15 C15         3.9026   28.9749   -7.2426 C.ar      1 <1>        -0.0759 
     16 C16         4.9890   29.8302   -7.0036 C.ar      1 <1>        -0.0739 
     17 C17         6.0583   29.9113   -7.9047 C.ar      1 <1>        -0.0408 
     18 C18         8.0499   29.9701  -10.2356 C.3       1 <1>         0.1835 
     19 C19         9.5581   29.9096   -9.8539 C.3       1 <1>         0.1190 
     20 C20        10.2674   29.4610  -11.2066 C.3       1 <1>         0.0179 
     21 C21         9.1229   29.2021  -12.2339 C.3       1 <1>         0.1611 
     22 O22         8.5554   28.9374  -11.0059 O.3       1 <1>        -0.3184 
     23 C23         9.8005   28.8881   -8.7010 C.3       1 <1>        -0.0468 
     24 C24         7.5410   31.2744  -10.9072 C.3       1 <1>        -0.0093 
     25 C25         9.9747   31.2716   -9.3509 C.2       1 <1>         0.2668 
     26 O26        10.8979   31.9002   -9.8442 O.2       1 <1>        -0.3118 
     27 O27         9.2411   31.7380   -8.3296 O.3       1 <1>        -0.2804 
     28 C28         9.6457   33.0413   -7.8682 C.3       1 <1>         0.0649 
     29 N29         8.2959   28.0273  -12.6311 N.pl3     1 <1>        -0.2380 
     30 C30         8.5229   27.2592  -13.7190 C.ar      1 <1>         0.0681 
     31 C31         7.4556   26.3953  -13.9659 C.ar      1 <1>        -0.0072 
     32 C32         9.6502   27.2771  -14.5406 C.ar      1 <1>        -0.0404 
     33 C33         9.6715   26.3992  -15.6315 C.ar      1 <1>        -0.0732 
     34 C34         8.5966   25.5335  -15.8828 C.ar      1 <1>        -0.0750 
     35 C35         7.4704   25.5178  -15.0503 C.ar      1 <1>        -0.0685 
     36 H1          2.4073   24.4643  -12.5278 H         1 <1>         0.1863 
     37 H2          3.2174   25.3609  -10.2135 H         1 <1>         0.0679 
     38 H3          2.4094   26.6825  -11.1527 H         1 <1>         0.0679 
     39 H4          3.0160   27.5089   -8.5792 H         1 <1>         0.0566 
     40 H5          3.0867   28.9336   -6.5273 H         1 <1>         0.0516 
     41 H6          5.0024   30.4401   -6.1054 H         1 <1>         0.0561 
     42 H7          6.8993   30.5706   -7.7221 H         1 <1>         0.0538 
     43 H8         10.8910   28.5570  -11.0827 H         1 <1>         0.0309 
     44 H9         10.9141   30.2472  -11.6249 H         1 <1>         0.0309 
     45 H10         8.7685   30.0805  -12.7933 H         1 <1>         0.0929 
     46 H11         9.5049   27.8683   -8.9931 H         1 <1>         0.0223 
     47 H12         9.2175   29.1682   -7.8104 H         1 <1>         0.0223 
     48 H13        10.8683   28.8776   -8.4337 H         1 <1>         0.0223 
     49 H14         6.7920   31.0403  -11.6791 H         1 <1>         0.0282 
     50 H15         8.3457   31.8798  -11.3505 H         1 <1>         0.0282 
     51 H16         7.0529   31.8783  -10.1285 H         1 <1>         0.0282 
     52 H17         8.9831   33.3248   -7.0373 H         1 <1>         0.0576 
     53 H18         9.5473   33.7964   -8.6647 H         1 <1>         0.0576 
     54 H19        10.6833   33.0303   -7.4974 H         1 <1>         0.0576 
     55 H20        10.4791   27.9470  -14.3395 H         1 <1>         0.0539 
     56 H21        10.5334   26.3891  -16.2918 H         1 <1>         0.0568 
     57 H22         8.6371   24.8636  -16.7363 H         1 <1>         0.0516 
     58 H23         6.6421   24.8468  -15.2425 H         1 <1>         0.0576 
@<TRIPOS>BOND
     1    2    1 2    
     2    2    3 am   
     3    3    4 1    
     4    5    4 1    
     5    6    5 ar   
     6    2    6 1    
     7    6    7 ar   
     8    9    8 ar   
     9    7    8 ar   
    10   10    9 ar   
    11    5   10 ar   
    12   10   11 1    
    13   11   12 ar   
    14   12   13 1    
    15    9   13 1    
    16   11   14 ar   
    17   14   15 ar   
    18   15   16 ar   
    19   17   16 ar   
    20   12   17 ar   
    21   13   18 1    
    22   18   19 1    
    23   19   20 1    
    24   21   20 1    
    25    8   29 1    
    26   22   21 1    
    27   19   23 1    
    28   18   22 1    
    29   18   24 1    
    30   19   25 1    
    31   25   26 2    
    32   25   27 1    
    33   27   28 1    
    34   29   30 1    
    35   30   31 ar   
    36    7   31 1    
    37   30   32 ar   
    38   32   33 ar   
    39   33   34 ar   
    40   34   35 ar   
    41   31   35 ar   
    42   21   29 1    
    43    3   36 1    
    44    4   37 1    
    45    4   38 1    
    46   14   39 1    
    47   15   40 1    
    48   16   41 1    
    49   17   42 1    
    50   20   43 1    
    51   20   44 1    
    52   21   45 1    
    53   23   46 1    
    54   23   47 1    
    55   23   48 1    
    56   24   49 1    
    57   24   50 1    
    58   24   51 1    
    59   28   52 1    
    60   28   53 1    
    61   28   54 1    
    62   32   55 1    
    63   33   56 1    
    64   34   57 1    
    65   35   58 1    
@<TRIPOS>SUBSTRUCTURE
     1 ****        2 TEMP              0 ****  ****    0 ROOT 
@<TRIPOS>NORMAL
@<TRIPOS>FF_PBC
FORCE_FIELD_SETUP_FEATURE Force Field Setup information
v1.0  0 0.000000 0.000000 0.000000 0.000000 0.000000 0.000000 NONE 0 0 0 0 1 0 0 0 0 0 0 0 0
