#	Name:			PISM00956
#	Creating user name:	baoopengkun
#	Creation time:		Thu Dec 13 10:35:31 2018

#	Modifying user name:	baoopengkun
#	Modification time:	Thu Dec 13 10:38:38 2018

@<TRIPOS>MOLECULE
PISM00956
   41    43     1     1     0
SMALL
GAST_HUCK


@<TRIPOS>ATOM
      1 C1         -9.7111    8.1888   -5.5518 C.ar      1 <1>        -0.0323 
      2 C2        -10.0367    9.4965   -5.9185 C.ar      1 <1>        -0.0340 
      3 C3        -11.3757    9.8457   -6.1089 C.ar      1 <1>        -0.0323 
      4 C4        -12.3833    8.8929   -5.9314 C.ar      1 <1>        -0.0370 
      5 C5        -12.0706    7.5815   -5.5472 C.ar      1 <1>        -0.0190 
      6 C6        -10.7231    7.2419   -5.3699 C.ar      1 <1>        -0.0370 
      7 C7        -13.1463    6.4977   -5.3139 C.3       1 <1>         0.0876 
      8 O8        -12.6848    5.7259   -4.1853 O.3       1 <1>        -0.4201 
      9 C9        -13.1958    5.5533   -6.5529 C.3       1 <1>        -0.0350 
     10 C10       -14.5489    7.0844   -4.9615 C.3       1 <1>         0.0827 
     11 N11       -14.4662    8.1170   -3.9369 N.pl3     1 <1>        -0.1836 
     12 N12       -13.3971    8.3997   -3.1404 N.2       1 <1>        -0.1909 
     13 C13       -13.5970    9.3924   -2.3564 C.2       1 <1>         0.0618 
     14 N14       -14.9384    9.7555   -2.7217 N.2       1 <1>        -0.2870 
     15 C15       -15.3688    8.9959   -3.6229 C.2       1 <1>         0.1269 
     16 C16       -13.3571    6.2787   -7.9171 C.3       1 <1>        -0.0237 
     17 C17       -13.3437    5.2363   -9.0445 C.ar      1 <1>        -0.0434 
     18 C18       -12.1375    4.8673   -9.6513 C.ar      1 <1>        -0.0597 
     19 C19       -12.1268    3.9306  -10.6889 C.ar      1 <1>        -0.0546 
     20 C20       -13.3224    3.3508  -11.1207 C.ar      1 <1>         0.0330 
     21 C21       -14.5279    3.7075  -10.5110 C.ar      1 <1>        -0.0546 
     22 C22       -14.5374    4.6444   -9.4734 C.ar      1 <1>        -0.0597 
     23 Cl23      -13.3101    2.1792  -12.4230 Cl        1 <1>        -0.0771 
     24 H1         -8.6720    7.9082   -5.4074 H         1 <1>         0.0698 
     25 H2         -9.2541   10.2368   -6.0547 H         1 <1>         0.0856 
     26 H3        -11.6338   10.8609   -6.3956 H         1 <1>         0.0698 
     27 H4        -13.4085    9.1977   -6.0997 H         1 <1>         0.0851 
     28 H5        -10.4500    6.2304   -5.0866 H         1 <1>         0.0851 
     29 H6        -13.2443    4.9905   -3.9598 H         1 <1>         0.1963 
     30 H7        -14.0162    4.8285   -6.4270 H         1 <1>         0.0220 
     31 H8        -12.2512    4.9863   -6.5889 H         1 <1>         0.0220 
     32 H9        -15.2017    6.2840   -4.5821 H         1 <1>         0.0572 
     33 H10       -15.0395    7.5107   -5.8467 H         1 <1>         0.0572 
     34 H11       -12.9307    9.8361   -1.6184 H         1 <1>         0.0863 
     35 H12       -16.3596    9.0806   -4.0676 H         1 <1>         0.1361 
     36 H13       -12.5343    6.9923   -8.0797 H         1 <1>         0.0420 
     37 H14       -14.2992    6.8432   -7.9674 H         1 <1>         0.0420 
     38 H15       -11.2022    5.3058   -9.3179 H         1 <1>         0.0557 
     39 H16       -11.1904    3.6514  -11.1609 H         1 <1>         0.0606 
     40 H17       -15.4560    3.2551  -10.8449 H         1 <1>         0.0606 
     41 H18       -15.4782    4.9087   -9.0011 H         1 <1>         0.0557 
@<TRIPOS>BOND
     1    2    1 ar   
     2    2    3 ar   
     3    3    4 ar   
     4    4    5 ar   
     5    5    6 ar   
     6    1    6 ar   
     7    5    7 1    
     8    7    8 1    
     9    7    9 1    
    10    7   10 1    
    11   10   11 1    
    12   11   12 1    
    13   12   13 2    
    14   13   14 1    
    15   14   15 2    
    16   11   15 1    
    17    9   16 1    
    18   16   17 1    
    19   17   18 ar   
    20   18   19 ar   
    21   19   20 ar   
    22   20   21 ar   
    23   21   22 ar   
    24   17   22 ar   
    25   20   23 1    
    26    1   24 1    
    27    2   25 1    
    28    3   26 1    
    29    4   27 1    
    30    6   28 1    
    31    8   29 1    
    32    9   30 1    
    33    9   31 1    
    34   10   32 1    
    35   10   33 1    
    36   13   34 1    
    37   15   35 1    
    38   16   36 1    
    39   16   37 1    
    40   18   38 1    
    41   19   39 1    
    42   21   40 1    
    43   22   41 1    
@<TRIPOS>SUBSTRUCTURE
     1 ****        2 TEMP              0 ****  ****    0 ROOT 
@<TRIPOS>NORMAL
@<TRIPOS>FF_PBC
FORCE_FIELD_SETUP_FEATURE Force Field Setup information
v1.0  0 0.000000 0.000000 0.000000 0.000000 0.000000 0.000000 NONE 0 0 0 0 1 0 0 0 0 0 0 0 0
