#	Name:			PISM00447
#	Creating user name:	baoopengkun
#	Creation time:		Sun Mar 31 21:52:01 2019

#	Modifying user name:	baoopengkun
#	Modification time:	Sun Mar 31 21:53:19 2019

@<TRIPOS>MOLECULE
PISM00447
   31    32     1     1     0
SMALL
GAST_HUCK


@<TRIPOS>ATOM
      1 C1          1.7139    8.5805   -8.4529 C.ar      1 <1>        -0.0298 
      2 C2          2.7296    7.6210   -8.4053 C.ar      1 <1>        -0.0597 
      3 C3          3.4127    7.3726   -7.2086 C.ar      1 <1>        -0.0320 
      4 C4          3.0740    8.0890   -6.0525 C.ar      1 <1>        -0.0326 
      5 C5          2.0689    9.0638   -6.1087 C.ar      1 <1>        -0.0317 
      6 C6          1.3889    9.3058   -7.3052 C.ar      1 <1>         0.0896 
      7 O7          0.3840   10.2715   -7.3564 O.3       1 <1>        -0.3220 
      8 C8         -0.8876    9.8034   -6.8818 C.3       1 <1>         0.0592 
      9 C9          4.4323    6.4157   -7.1570 C.ar      1 <1>        -0.0563 
     10 C10         5.1143    6.1537   -5.9634 C.ar      1 <1>        -0.0229 
     11 C11         4.7495    6.8530   -4.8070 C.ar      1 <1>        -0.0580 
     12 C12         3.7456    7.8239   -4.8532 C.ar      1 <1>        -0.0623 
     13 C13         6.2402    5.1054   -5.9155 C.3       1 <1>         0.0885 
     14 C14         7.4647    5.6239   -5.1967 C.2       1 <1>         0.2452 
     15 O15         8.3659    4.7048   -4.8447 O.3       1 <1>        -0.2911 
     16 O16         7.6348    6.8086   -4.9550 O.2       1 <1>        -0.3673 
     17 C17         5.6732    3.8133   -5.2700 C.3       1 <1>        -0.0348 
     18 H1          1.1772    8.7638   -9.3774 H         1 <1>         0.0583 
     19 H2          2.9834    7.0721   -9.3075 H         1 <1>         0.0599 
     20 H3          1.8073    9.6407   -5.2284 H         1 <1>         0.0493 
     21 H4         -1.6107   10.6289   -6.9591 H         1 <1>         0.0577 
     22 H5         -0.8233    9.4903   -5.8289 H         1 <1>         0.0577 
     23 H6         -1.2415    8.9588   -7.4930 H         1 <1>         0.0577 
     24 H7          4.6977    5.8650   -8.0525 H         1 <1>         0.0530 
     25 H8          5.2420    6.6476   -3.8617 H         1 <1>         0.0579 
     26 H9          3.4928    8.3694   -3.9480 H         1 <1>         0.0588 
     27 H10         6.5821    4.8708   -6.9352 H         1 <1>         0.0702 
     28 H11         9.1034    5.1013   -4.3919 H         1 <1>         0.2541 
     29 H12         6.4223    3.0059   -5.2858 H         1 <1>         0.0278 
     30 H13         4.7836    3.4700   -5.8226 H         1 <1>         0.0278 
     31 H14         5.3826    4.0034   -4.2254 H         1 <1>         0.0278 
@<TRIPOS>BOND
     1    2    1 ar   
     2    2    3 ar   
     3    3    4 ar   
     4    4    5 ar   
     5    5    6 ar   
     6    1    6 ar   
     7    6    7 1    
     8    7    8 1    
     9    3    9 ar   
    10    9   10 ar   
    11   10   11 ar   
    12   11   12 ar   
    13    4   12 ar   
    14   10   13 1    
    15   13   14 1    
    16   14   15 1    
    17   14   16 2    
    18   13   17 1    
    19    1   18 1    
    20    2   19 1    
    21    5   20 1    
    22    8   21 1    
    23    8   22 1    
    24    8   23 1    
    25    9   24 1    
    26   11   25 1    
    27   12   26 1    
    28   13   27 1    
    29   15   28 1    
    30   17   29 1    
    31   17   30 1    
    32   17   31 1    
@<TRIPOS>SUBSTRUCTURE
     1 ****        2 TEMP              0 ****  ****    0 ROOT 
@<TRIPOS>NORMAL
@<TRIPOS>FF_PBC
FORCE_FIELD_SETUP_FEATURE Force Field Setup information
v1.0  0 0.000000 0.000000 0.000000 0.000000 0.000000 0.000000 NONE 0 0 0 0 1 0 0 0 0 0 0 0 0
