#	Name:			PISM00815
#	Creating user name:	baoopengkun
#	Creation time:		Fri Nov 30 17:16:25 2018

#	Modifying user name:	baoopengkun
#	Modification time:	Fri Nov 30 17:21:41 2018

@<TRIPOS>MOLECULE
PISM00815
   34    35     1     2     0
SMALL
GAST_HUCK


@<TRIPOS>ATOM
      1 C1         -0.7677   -2.2303    4.6876 C.ar      1 <1>        -0.0642 
      2 C2         -1.2376   -3.4318    5.2257 C.ar      1 <1>        -0.0555 
      3 C3         -1.7428   -4.4248    4.3826 C.ar      1 <1>         0.0327 
      4 C4         -1.7907   -4.2078    3.0032 C.ar      1 <1>        -0.0555 
      5 C5         -1.3367   -2.9991    2.4674 C.ar      1 <1>        -0.0642 
      6 C6         -0.8044   -2.0127    3.3058 C.ar      1 <1>        -0.0285 
      7 H7         -2.1836   -4.9797    2.3494 H         1 <1>         0.0604 
      8 C8         -0.2726   -0.7068    2.7530 C.2       1 <1>         0.0837 
      9 C9         -0.5713    0.5747    3.4300 C.2       1 <1>         0.2399 
     10 O10        -1.8132    0.9615    3.7742 O.3       1 <1>        -0.2864 
     11 C11        -2.9020    0.1075    3.3717 C.3       1 <1>         0.0638 
     12 O12         0.3569    1.3305    3.6622 O.2       1 <1>        -0.3769 
     13 C13         0.5015   -0.6869    1.6601 C.2       1 <1>         0.1067 
     14 O14         0.8259   -1.8355    1.0479 O.3       1 <1>        -0.2488 
     15 C15         1.6591   -1.6584   -0.1089 C.3       1 <1>         0.2460 
     16 C16         1.7910   -3.0015   -0.7834 C.2       1 <1>         0.0005 
     17 C17         1.2221   -2.9777   -1.9871 C.2       1 <1>         0.0294 
     18 C18         0.7350   -1.6081   -2.1069 C.2       1 <1>         0.2497 
     19 O19         0.9859   -0.8194   -1.0694 O.3       1 <1>        -0.2292 
     20 C20         1.1192   -4.0911   -2.9935 C.3       1 <1>        -0.0323 
     21 O21         0.1418   -1.2054   -3.0923 O.2       1 <1>        -0.3691 
     22 H1         -0.3712   -1.4656    5.3485 H         1 <1>         0.0554 
     23 H2         -1.2097   -3.5964    6.2980 H         1 <1>         0.0604 
     24 Cl24       -2.3159   -5.9381    5.0535 Cl        1 <1>        -0.0770 
     25 H4         -1.4107   -2.8323    1.3977 H         1 <1>         0.0554 
     26 H5         -3.8277    0.6658    3.5750 H         1 <1>         0.0574 
     27 H6         -2.9489   -0.8188    3.9609 H         1 <1>         0.0574 
     28 H7         -2.8768   -0.1256    2.2952 H         1 <1>         0.0574 
     29 H8          0.8528    0.2863    1.3046 H         1 <1>         0.1338 
     30 H9          2.6519   -1.2493    0.1452 H         1 <1>         0.1227 
     31 H10         2.2777   -3.8687   -0.3387 H         1 <1>         0.0707 
     32 H11         2.0328   -4.7043   -2.9801 H         1 <1>         0.0347 
     33 H12         0.9843   -3.6757   -4.0035 H         1 <1>         0.0347 
     34 H13         0.2547   -4.7259   -2.7488 H         1 <1>         0.0347 
@<TRIPOS>BOND
     1    2    1 ar   
     2    2    3 ar   
     3    3    4 ar   
     4    4    5 ar   
     5    5    6 ar   
     6    1    6 ar   
     7    4    7 1    
     8    6    8 1    
     9    8    9 1    
    10    9   10 1    
    11   10   11 1    
    12    9   12 2    
    13    8   13 2    
    14   13   14 1    
    15   14   15 1    
    16   15   16 1    
    17   16   17 2    
    18   17   18 1    
    19   18   19 1    
    20   15   19 1    
    21   17   20 1    
    22   18   21 2    
    23    1   22 1    
    24    2   23 1    
    25    3   24 1    
    26    5   25 1    
    27   11   26 1    
    28   11   27 1    
    29   11   28 1    
    30   13   29 1    
    31   15   30 1    
    32   16   31 1    
    33   20   32 1    
    34   20   33 1    
    35   20   34 1    
@<TRIPOS>SUBSTRUCTURE
     1 ****        2 TEMP              0 ****  ****    0 ROOT 
@<TRIPOS>NORMAL
@<TRIPOS>FF_PBC
FORCE_FIELD_SETUP_FEATURE Force Field Setup information
v1.0  0 0.000000 0.000000 0.000000 0.000000 0.000000 0.000000 NONE 0 0 0 0 1 0 0 0 0 0 0 0 0
@<TRIPOS>RENDERING_ATTRS
ANTIALIASED_LINES 
*
