#	Name:			PISM00289
#	Creating user name:	baoopengkun
#	Creation time:		Sun Dec 16 03:19:57 2018

#	Modifying user name:	baoopengkun
#	Modification time:	Sun Dec 16 03:27:22 2018

@<TRIPOS>MOLECULE
PISM00289
   50    52     1     1     0
SMALL
GAST_HUCK


@<TRIPOS>ATOM
      1 C1        -18.8240   17.1234   44.3922 C.ar      1 <1>        -0.0687 
      2 C2        -18.0860   16.2584   43.5780 C.ar      1 <1>        -0.0191 
      3 C3        -17.1072   15.4448   44.1601 C.ar      1 <1>         0.1266 
      4 C4        -16.9041   15.4643   45.5423 C.ar      1 <1>        -0.0317 
      5 C5        -17.6931   16.2761   46.3636 C.ar      1 <1>        -0.0285 
      6 C6        -18.6387   17.1247   45.7771 C.ar      1 <1>        -0.0692 
      7 C7        -17.5225   16.2231   47.8862 C.3       1 <1>         0.1191 
      8 S8        -18.1981   14.6894   48.5553 S.o2      1 <1>         0.0668 
      9 O9        -18.2378   14.8267   49.9976 O.2       1 <1>        -0.1483 
     10 O10       -17.4763   13.5685   47.9924 O.2       1 <1>        -0.1483 
     11 N11       -19.7775   14.7195   47.9958 N.am      1 <1>        -0.1984 
     12 C12       -20.1888   14.6646   46.6339 C.ar      1 <1>         0.0440 
     13 C13       -19.5031   13.8944   45.6891 C.ar      1 <1>        -0.0617 
     14 C14       -19.9066   13.8857   44.3506 C.ar      1 <1>        -0.0607 
     15 C15       -21.1031   14.5013   43.9610 C.ar      1 <1>         0.0505 
     16 C16       -21.7259   15.3502   44.8833 C.ar      1 <1>        -0.0322 
     17 C17       -21.3026   15.3989   46.2154 C.ar      1 <1>        -0.0529 
     18 C18       -22.8708   16.2329   44.3904 C.3       1 <1>        -0.0077 
     19 C19       -22.5725   16.5678   42.9121 C.3       1 <1>         0.0497 
     20 C20       -22.3713   15.2682   42.1803 C.2       1 <1>         0.1999 
     21 O21       -22.8887   15.1580   41.0804 O.2       1 <1>        -0.3812 
     22 N22       -21.6679   14.3103   42.7349 N.pl3     1 <1>        -0.2378 
     23 C23       -21.5642   13.0245   42.0258 C.3       1 <1>         0.0446 
     24 C24       -22.9161   12.2698   42.1497 C.3       1 <1>        -0.0331 
     25 C25       -22.8751   10.8930   41.4356 C.3       1 <1>        -0.0632 
     26 F26       -16.3625   14.6407   43.4050 F         1 <1>        -0.1908 
     27 H1        -19.5475   17.7993   43.9502 H         1 <1>         0.0529 
     28 C28       -18.3683   16.2186   42.0715 C.3       1 <1>        -0.0335 
     29 H2        -16.1319   14.8362   45.9729 H         1 <1>         0.0525 
     30 H3        -19.2400   17.7870   46.3915 H         1 <1>         0.0506 
     31 H4        -18.0440   17.0602   48.3731 H         1 <1>         0.0673 
     32 H5        -16.4558   16.2802   48.1489 H         1 <1>         0.0673 
     33 H6        -20.4816   14.8635   48.6914 H         1 <1>         0.2114 
     34 H7        -18.6531   13.2906   45.9741 H         1 <1>         0.0398 
     35 H8        -19.2602   13.4036   43.6267 H         1 <1>         0.0470 
     36 H9        -21.8378   16.0157   46.9292 H         1 <1>         0.0392 
     37 H10       -22.9436   17.1611   44.9798 H         1 <1>         0.0425 
     38 H11       -23.8147   15.6718   44.4817 H         1 <1>         0.0425 
     39 H12       -21.6577   17.1701   42.8158 H         1 <1>         0.0529 
     40 H13       -23.4123   17.1331   42.4769 H         1 <1>         0.0529 
     41 H14       -20.8003   12.3431   42.4229 H         1 <1>         0.0550 
     42 H15       -21.3197   13.1961   40.9642 H         1 <1>         0.0550 
     43 H16       -23.7302   12.8696   41.7123 H         1 <1>         0.0284 
     44 H17       -23.1412   12.1220   43.2192 H         1 <1>         0.0284 
     45 H18       -23.8477   10.3856   41.5363 H         1 <1>         0.0230 
     46 H19       -22.0989   10.2490   41.8775 H         1 <1>         0.0230 
     47 H20       -22.6581   11.0250   40.3640 H         1 <1>         0.0230 
     48 H21       -18.2881   17.2343   41.6563 H         1 <1>         0.0370 
     49 H22       -19.3891   15.8430   41.9064 H         1 <1>         0.0370 
     50 H23       -17.6640   15.5650   41.5362 H         1 <1>         0.0370 
@<TRIPOS>BOND
     1    2    1 ar   
     2    2    3 ar   
     3    3    4 ar   
     4    4    5 ar   
     5    5    6 ar   
     6    1    6 ar   
     7    5    7 1    
     8    7    8 1    
     9    8    9 2    
    10    8   10 2    
    11    8   11 1    
    12   11   12 1    
    13   12   13 ar   
    14   13   14 ar   
    15   14   15 ar   
    16   15   16 ar   
    17   16   17 ar   
    18   12   17 ar   
    19   16   18 1    
    20   18   19 1    
    21   19   20 1    
    22   20   21 2    
    23   20   22 1    
    24   15   22 1    
    25   22   23 1    
    26   23   24 1    
    27   24   25 1    
    28    3   26 1    
    29    1   27 1    
    30    2   28 1    
    31    4   29 1    
    32    6   30 1    
    33    7   31 1    
    34    7   32 1    
    35   11   33 1    
    36   13   34 1    
    37   14   35 1    
    38   17   36 1    
    39   18   37 1    
    40   18   38 1    
    41   19   39 1    
    42   19   40 1    
    43   23   41 1    
    44   23   42 1    
    45   24   43 1    
    46   24   44 1    
    47   25   45 1    
    48   25   46 1    
    49   25   47 1    
    50   28   48 1    
    51   28   49 1    
    52   28   50 1    
@<TRIPOS>SUBSTRUCTURE
     1 ****        2 TEMP              0 ****  ****    0 ROOT 
@<TRIPOS>NORMAL
@<TRIPOS>FF_PBC
FORCE_FIELD_SETUP_FEATURE Force Field Setup information
v1.0  0 0.000000 0.000000 0.000000 0.000000 0.000000 0.000000 NONE 0 0 0 0 1 0 0 0 0 0 0 0 0
