#	Name:			PISM00109
#	Creating user name:	baoopengkun
#	Creation time:		Mon Dec 17 13:57:59 2018

#	Modifying user name:	baoopengkun
#	Modification time:	Mon Dec 17 13:59:59 2018

@<TRIPOS>MOLECULE
PISM00109
   38    40     1     1     0
SMALL
GAST_HUCK


@<TRIPOS>ATOM
      1 Cl1        11.3472   11.0240   18.6898 Cl        1 <1>        -0.0715 
      2 C2         10.8992    9.4144   18.1623 C.ar      1 <1>         0.0384 
      3 C3          9.5983    8.9512   18.3713 C.ar      1 <1>        -0.0503 
      4 C4          9.2461    7.6665   17.9511 C.ar      1 <1>        -0.0634 
      5 C5         10.1924    6.8552   17.3182 C.ar      1 <1>        -0.0542 
      6 C6         11.4977    7.3121   17.0962 C.ar      1 <1>         0.0113 
      7 C7         11.8438    8.5971   17.5349 C.ar      1 <1>        -0.0404 
      8 C8         12.4788    6.3944   16.3921 C.2       1 <1>         0.1231 
      9 C9         13.7018    6.7552   15.9911 C.2       1 <1>        -0.0479 
     10 C10        14.2278    5.5352   15.3851 C.2       1 <1>        -0.0493 
     11 C11        13.2236    4.6669   15.5175 C.2       1 <1>         0.1149 
     12 O12        12.1327    5.1277   16.1336 O.3       1 <1>        -0.2558 
     13 C13        13.2607    3.2693   15.0548 C.2       1 <1>        -0.0003 
     14 C14        13.6979    2.8369   13.8656 C.2       1 <1>         0.1189 
     15 C15        14.1900    3.6177   12.7234 C.2       1 <1>         0.2510 
     16 O16        14.1982    4.8358   12.7299 O.2       1 <1>        -0.3737 
     17 N17        14.5999    2.8352   11.7033 N.am      1 <1>        -0.1850 
     18 C18        14.4564    1.5028   11.8899 C.2       1 <1>         0.1620 
     19 S19        13.7351    1.1093   13.4758 S.3       1 <1>         0.0223 
     20 S20        14.9003    0.3035   10.7544 S.2       1 <1>        -0.2522 
     21 C21        15.1564    3.3554   10.4489 C.3       1 <1>         0.0849 
     22 C22        15.3292    4.8902   10.3058 C.3       1 <1>         0.1190 
     23 S23        16.0828    5.2977    8.7183 S.o2      1 <1>         0.0822 
     24 O24        17.3096    4.5394    8.5767 O.2       1 <1>        -0.1473 
     25 O25        16.1112    6.7398    8.5790 O.2       1 <1>        -0.1473 
     26 O26        15.0649    4.7457    7.7660 O.3       1 <1>        -0.2539 
     27 H1          8.8666    9.5875   18.8583 H         1 <1>         0.0602 
     28 H2          8.2375    7.2991   18.1159 H         1 <1>         0.0610 
     29 H3          9.9005    5.8604   16.9970 H         1 <1>         0.0605 
     30 H4         12.8456    8.9839   17.4022 H         1 <1>         0.0610 
     31 H5         14.2345    7.7009   16.0627 H         1 <1>         0.0416 
     32 H6         15.2124    5.3888   14.9427 H         1 <1>         0.0412 
     33 H7         12.8857    2.5337   15.7657 H         1 <1>         0.0606 
     34 H8         14.5121    3.0169    9.6214 H         1 <1>         0.0617 
     35 H9         16.1524    2.9059   10.3049 H         1 <1>         0.0617 
     36 H10        15.9937    5.2826   11.0908 H         1 <1>         0.0552 
     37 H11        14.3564    5.4036   10.3518 H         1 <1>         0.0552 
     38 H12        15.3467    4.9139    6.8739 H         1 <1>         0.2445 
@<TRIPOS>BOND
     1    2    1 1    
     2    2    3 ar   
     3    3    4 ar   
     4    4    5 ar   
     5    5    6 ar   
     6    6    7 ar   
     7    2    7 ar   
     8    6    8 1    
     9    8    9 2    
    10    9   10 1    
    11   10   11 2    
    12   11   12 1    
    13    8   12 1    
    14   11   13 1    
    15   13   14 2    
    16   14   15 1    
    17   15   16 2    
    18   15   17 am   
    19   17   18 am   
    20   18   19 1    
    21   14   19 1    
    22   18   20 2    
    23   17   21 1    
    24   21   22 1    
    25   22   23 1    
    26   23   24 2    
    27   23   25 2    
    28   23   26 1    
    29    3   27 1    
    30    4   28 1    
    31    5   29 1    
    32    7   30 1    
    33    9   31 1    
    34   10   32 1    
    35   13   33 1    
    36   21   34 1    
    37   21   35 1    
    38   22   36 1    
    39   22   37 1    
    40   26   38 1    
@<TRIPOS>SUBSTRUCTURE
     1 ****        2 TEMP              0 ****  ****    0 ROOT 
@<TRIPOS>NORMAL
@<TRIPOS>FF_PBC
FORCE_FIELD_SETUP_FEATURE Force Field Setup information
v1.0  0 0.000000 0.000000 0.000000 0.000000 0.000000 0.000000 NONE 0 0 0 0 1 0 0 0 0 0 0 0 0
