#	Name:			PISM01158
#	Creating user name:	baoopengkun
#	Creation time:		Tue Dec 18 15:53:32 2018

#	Modifying user name:	baoopengkun
#	Modification time:	Tue Dec 18 15:58:44 2018

@<TRIPOS>MOLECULE
PISM01158
   25    26     1     1     0
SMALL
GAST_HUCK


@<TRIPOS>ATOM
      1 O1          3.4771    6.1168    5.7520 O.2       1 <1>        -0.3688 
      2 C2          3.7773    5.8385    4.6020 C.2       1 <1>         0.2496 
      3 O3          4.2796    4.6482    4.2713 O.3       1 <1>        -0.2915 
      4 C4          3.6036    6.8119    3.4632 C.3       1 <1>         0.1212 
      5 C5          4.9324    7.0167    2.7043 C.3       1 <1>         0.0314 
      6 S6          4.5621    8.4399    1.6447 S.3       1 <1>        -0.1239 
      7 C7          3.4780    9.1930    2.8979 C.3       1 <1>         0.0910 
      8 N8          3.2085    8.1613    3.9217 N.3       1 <1>        -0.2720 
      9 C9          2.2106    9.7474    2.2254 C.ar      1 <1>        -0.0160 
     10 C10         1.7848   11.0563    2.4834 C.ar      1 <1>        -0.0580 
     11 C11         0.6350   11.5623    1.8701 C.ar      1 <1>        -0.0685 
     12 C12        -0.1033   10.7599    0.9964 C.ar      1 <1>        -0.0687 
     13 C13         0.3129    9.4515    0.7374 C.ar      1 <1>        -0.0685 
     14 C14         1.4655    8.9496    1.3489 C.ar      1 <1>        -0.0580 
     15 H15         1.7756    7.9331    1.1351 H         1 <1>         0.0557 
     16 H16         0.3144   12.5798    2.0727 H         1 <1>         0.0599 
     17 H1          4.3609    4.0892    5.0365 H         1 <1>         0.2540 
     18 H2          2.8462    6.3963    2.7784 H         1 <1>         0.0729 
     19 H3          5.2333    6.1376    2.1135 H         1 <1>         0.0420 
     20 H4          5.7374    7.2925    3.4033 H         1 <1>         0.0420 
     21 H5          4.0564    9.9950    3.3821 H         1 <1>         0.0741 
     22 H6          2.1808    8.1832    4.2644 H         1 <1>         0.1286 
     23 H7          2.3434   11.6911    3.1637 H         1 <1>         0.0557 
     24 H8         -0.9973   11.1515    0.5207 H         1 <1>         0.0559 
     25 H25        -0.2597    8.8247    0.0602 H         1 <1>         0.0599 
@<TRIPOS>BOND
     1    2    1 2    
     2    2    3 1    
     3    2    4 1    
     4    4    5 1    
     5    5    6 1    
     6    6    7 1    
     7    7    8 1    
     8    4    8 1    
     9    7    9 1    
    10    9   10 ar   
    11   10   11 ar   
    12   11   12 ar   
    13   12   13 ar   
    14   13   14 ar   
    15    9   14 ar   
    16   14   15 1    
    17   11   16 1    
    18    3   17 1    
    19    4   18 1    
    20    5   19 1    
    21    5   20 1    
    22    7   21 1    
    23    8   22 1    
    24   10   23 1    
    25   12   24 1    
    26   13   25 1    
@<TRIPOS>SUBSTRUCTURE
     1 ****        2 TEMP              0 ****  ****    0 ROOT 
@<TRIPOS>NORMAL
@<TRIPOS>FF_PBC
FORCE_FIELD_SETUP_FEATURE Force Field Setup information
v1.0  0 0.000000 0.000000 0.000000 0.000000 0.000000 0.000000 NONE 0 0 0 0 1 0 0 0 0 0 0 0 0
