#	Name:			PISM00597
#	Creating user name:	baoopengkun
#	Creation time:		Mon Dec 10 11:59:51 2018

#	Modifying user name:	baoopengkun
#	Modification time:	Mon Dec 10 12:00:04 2018

@<TRIPOS>MOLECULE
PISM00597
   39    41     1     2     0
SMALL
GAST_HUCK


@<TRIPOS>ATOM
      1 C1         -2.8399    9.0797   -4.3726 C.ar      1 <1>        -0.0329 
      2 C2         -4.2199    9.3027   -4.3565 C.ar      1 <1>        -0.0234 
      3 C3         -5.0726    8.4675   -5.0840 C.ar      1 <1>         0.0417 
      4 C4         -4.5443    7.4002   -5.8156 C.ar      1 <1>        -0.0234 
      5 C5         -3.1646    7.1774   -5.8292 C.ar      1 <1>        -0.0329 
      6 C6         -2.3059    8.0291   -5.1262 C.ar      1 <1>         0.0102 
      7 C7         -0.7880    7.8040   -5.1855 C.3       1 <1>         0.1947 
      8 C8         -0.3819    6.7748   -4.1017 C.3       1 <1>         0.1087 
      9 N9          1.0161    6.3641   -4.1085 N.pl3     1 <1>        -0.1810 
     10 N10         1.5451    5.3253   -3.4021 N.2       1 <1>        -0.1908 
     11 C11         2.7998    5.1633   -3.6030 C.2       1 <1>         0.0618 
     12 N12         3.0596    6.2210   -4.5398 N.2       1 <1>        -0.2870 
     13 C13         2.0074    6.8601   -4.7856 C.2       1 <1>         0.1270 
     14 O14        -0.0596    9.0321   -5.0602 O.3       1 <1>        -0.3796 
     15 C15        -0.2190    9.7257   -6.3016 C.3       1 <1>         0.0652 
     16 C16        -0.2393    8.5548   -7.3169 C.3       1 <1>         0.0734 
     17 O17        -0.3884    7.3844   -6.4971 O.3       1 <1>        -0.3766 
     18 Br18       -6.8997    8.7740   -5.0779 Br        1 <1>        -0.0236 
     19 C19        -1.3730    8.6781   -8.3697 C.3       1 <1>        -0.0256 
     20 C20        -1.3946    7.4482   -9.3167 C.3       1 <1>        -0.0535 
     21 C21        -2.5470    7.5533  -10.3491 C.3       1 <1>        -0.0652 
     22 H22        -2.1827    9.7252   -3.7980 H         1 <1>         0.0855 
     23 H23        -4.6299   10.1250   -3.7787 H         1 <1>         0.0719 
     24 H3         -5.2053    6.7445   -6.3736 H         1 <1>         0.0719 
     25 H4         -2.7592    6.3407   -6.3896 H         1 <1>         0.0855 
     26 H5         -0.9818    5.8630   -4.2391 H         1 <1>         0.0599 
     27 H6         -0.6041    7.1995   -3.1118 H         1 <1>         0.0599 
     28 H7          3.4800    4.4258   -3.1799 H         1 <1>         0.0863 
     29 H8          1.9779    7.7010   -5.4754 H         1 <1>         0.1361 
     30 H9          0.6019   10.4408   -6.4660 H         1 <1>         0.0575 
     31 H10        -1.1729   10.2758   -6.2934 H         1 <1>         0.0575 
     32 H11         0.7362    8.4654   -7.8230 H         1 <1>         0.0609 
     33 H12        -1.2121    9.5956   -8.9589 H         1 <1>         0.0290 
     34 H13        -2.3468    8.7621   -7.8640 H         1 <1>         0.0290 
     35 H14        -1.5257    6.5276   -8.7246 H         1 <1>         0.0263 
     36 H15        -0.4330    7.3778   -9.8522 H         1 <1>         0.0263 
     37 H16        -2.5426    6.6740  -11.0126 H         1 <1>         0.0230 
     38 H17        -2.4291    8.4580  -10.9657 H         1 <1>         0.0230 
     39 H18        -3.5200    7.5990   -9.8352 H         1 <1>         0.0230 
@<TRIPOS>BOND
     1    2    1 ar   
     2    2    3 ar   
     3    3    4 ar   
     4    4    5 ar   
     5    5    6 ar   
     6    1    6 ar   
     7    6    7 1    
     8    7    8 1    
     9    8    9 1    
    10    9   10 1    
    11   10   11 2    
    12   11   12 1    
    13   12   13 2    
    14    9   13 1    
    15    7   14 1    
    16   14   15 1    
    17   15   16 1    
    18   16   17 1    
    19    7   17 1    
    20    3   18 1    
    21   16   19 1    
    22   19   20 1    
    23   20   21 1    
    24    1   22 1    
    25    2   23 1    
    26    4   24 1    
    27    5   25 1    
    28    8   26 1    
    29    8   27 1    
    30   11   28 1    
    31   13   29 1    
    32   15   30 1    
    33   15   31 1    
    34   16   32 1    
    35   19   33 1    
    36   19   34 1    
    37   20   35 1    
    38   20   36 1    
    39   21   37 1    
    40   21   38 1    
    41   21   39 1    
@<TRIPOS>SUBSTRUCTURE
     1 ****        2 TEMP              0 ****  ****    0 ROOT 
@<TRIPOS>NORMAL
@<TRIPOS>FF_PBC
FORCE_FIELD_SETUP_FEATURE Force Field Setup information
v1.0  0 0.000000 0.000000 0.000000 0.000000 0.000000 0.000000 NONE 0 0 0 0 1 0 0 0 0 0 0 0 0
@<TRIPOS>RENDERING_ATTRS
ANTIALIASED_LINES 
*
