#	Name:			PISM00796.1
#	Creating user name:	baoopengkun
#	Creation time:		Sat Dec 15 02:03:48 2018

#	Modifying user name:	baoopengkun
#	Modification time:	Sat Dec 15 02:06:03 2018

@<TRIPOS>MOLECULE
PISM00796.1
   36    38     1     1     0
SMALL
GAST_HUCK


@<TRIPOS>ATOM
      1 C1         13.8764   17.0738  -36.8444 C.3       1 <1>        -0.0183 
      2 C2         14.8129   16.8442  -35.6314 C.3       1 <1>        -0.0170 
      3 C3         14.6772   15.3705  -35.1748 C.3       1 <1>         0.0620 
      4 O4         15.1115   14.4551  -36.2016 O.3       1 <1>        -0.3418 
      5 C5         14.6281   14.7402  -37.4219 C.2       1 <1>         0.1099 
      6 C6         14.0593   15.8977  -37.7657 C.2       1 <1>        -0.0236 
      7 C7         14.6540   13.8242  -38.5603 C.2       1 <1>         0.1277 
      8 O8         15.1316   12.7032  -38.6341 O.2       1 <1>        -0.4154 
      9 C9         13.9551   14.5375  -39.6337 C.2       1 <1>         0.0307 
     10 C10        13.5938   15.9468  -39.2073 C.3       1 <1>         0.0125 
     11 C11        14.3737   16.9945  -40.0434 C.3       1 <1>        -0.0478 
     12 C12        13.6714   14.0013  -40.8250 C.2       1 <1>         0.0843 
     13 O13        13.0080   14.7282  -41.7352 O.3       1 <1>        -0.2657 
     14 C14        12.8184   14.0650  -42.9978 C.3       1 <1>         0.2404 
     15 C15        14.1392   13.8941  -43.7151 C.2       1 <1>        -0.0006 
     16 C16        14.1713   14.6369  -44.8198 C.2       1 <1>         0.0293 
     17 C17        12.8626   15.2780  -44.8374 C.2       1 <1>         0.2496 
     18 O18        12.0571   14.9604  -43.8322 O.3       1 <1>        -0.2302 
     19 C19        15.2785   14.7794  -45.8283 C.3       1 <1>        -0.0323 
     20 O20        12.5240   16.0490  -45.7187 O.2       1 <1>        -0.3691 
     21 H1         14.1313   18.0302  -37.3249 H         1 <1>         0.0428 
     22 H2         12.8218   17.1059  -36.5280 H         1 <1>         0.0428 
     23 H3         14.5570   17.5376  -34.8133 H         1 <1>         0.0313 
     24 H4         15.8612   17.0193  -35.9260 H         1 <1>         0.0313 
     25 H5         13.6261   15.1560  -34.9201 H         1 <1>         0.0598 
     26 H6         15.2908   15.1853  -34.2789 H         1 <1>         0.0598 
     27 H7         12.5047   16.1043  -39.2668 H         1 <1>         0.0555 
     28 H8         14.1205   18.0159  -39.7242 H         1 <1>         0.0271 
     29 H9         14.1236   16.9054  -41.1110 H         1 <1>         0.0271 
     30 H10        15.4577   16.8428  -39.9238 H         1 <1>         0.0271 
     31 H11        14.0003   12.9725  -40.9909 H         1 <1>         0.1145 
     32 H12        12.2659   13.1148  -42.9011 H         1 <1>         0.1214 
     33 H13        14.9568   13.2584  -43.3778 H         1 <1>         0.0706 
     34 H14        15.7887   15.7417  -45.6740 H         1 <1>         0.0347 
     35 H15        14.8571   14.7563  -46.8444 H         1 <1>         0.0347 
     36 H16        16.0099   13.9634  -45.7270 H         1 <1>         0.0347 
@<TRIPOS>BOND
     1    2    1 1    
     2    2    3 1    
     3    3    4 1    
     4    4    5 1    
     5    5    6 2    
     6    1    6 1    
     7    5    7 1    
     8    7    8 2    
     9    7    9 1    
    10    9   10 1    
    11    6   10 1    
    12   10   11 1    
    13    9   12 2    
    14   12   13 1    
    15   13   14 1    
    16   14   15 1    
    17   15   16 2    
    18   16   17 1    
    19   17   18 1    
    20   14   18 1    
    21   16   19 1    
    22   17   20 2    
    23    1   21 1    
    24    1   22 1    
    25    2   23 1    
    26    2   24 1    
    27    3   25 1    
    28    3   26 1    
    29   10   27 1    
    30   11   28 1    
    31   11   29 1    
    32   11   30 1    
    33   12   31 1    
    34   14   32 1    
    35   15   33 1    
    36   19   34 1    
    37   19   35 1    
    38   19   36 1    
@<TRIPOS>SUBSTRUCTURE
     1 ****        2 TEMP              0 ****  ****    0 ROOT 
@<TRIPOS>NORMAL
@<TRIPOS>FF_PBC
FORCE_FIELD_SETUP_FEATURE Force Field Setup information
v1.0  0 0.000000 0.000000 0.000000 0.000000 0.000000 0.000000 NONE 0 0 0 0 1 0 0 0 0 0 0 0 0
