#	Name:			PISM01016
#	Creating user name:	malab
#	Creation time:		Mon Jul 01 22:14:48 2019

#	Modifying user name:	malab
#	Modification time:	Mon Jul 01 22:20:27 2019

@<TRIPOS>MOLECULE
PISM01016
   34    36     1     1     0
SMALL
GAST_HUCK


@<TRIPOS>ATOM
      1 C1          5.3375   17.9655   29.5628 C.ar      1 <1>         0.0565 
      2 C2          4.9451   19.2484   29.1698 C.ar      1 <1>        -0.0597 
      3 C3          5.0989   19.6548   27.8413 C.ar      1 <1>        -0.0745 
      4 C4          5.6489   18.7761   26.9038 C.ar      1 <1>        -0.0735 
      5 C5          6.0620   17.5013   27.3016 C.ar      1 <1>        -0.0436 
      6 C6          5.9229   17.0985   28.6332 C.ar      1 <1>         0.0547 
      7 N7          6.3562   15.8701   29.0054 N.pl3     1 <1>        -0.3042 
      8 C8          7.5507   15.7313   29.8334 C.3       1 <1>         0.0474 
      9 C9          8.2052   14.3457   29.6047 C.3       1 <1>         0.0561 
     10 N10         7.2087   13.3139   29.9085 N.am      1 <1>        -0.2392 
     11 C11         5.8076   13.5167   29.5349 C.3       1 <1>         0.0561 
     12 C12         5.6690   14.6798   28.5183 C.3       1 <1>         0.0474 
     13 C13         7.6083   12.1722   30.5395 C.2       1 <1>         0.3534 
     14 O14         8.8036   11.9889   30.7123 O.2       1 <1>        -0.3616 
     15 N15         6.7757   11.2605   30.9776 N.pl3     1 <1>        -0.0704 
     16 N16         5.4240   11.2406   30.9485 N.2       1 <1>        -0.0739 
     17 N17         4.9235   10.1287   31.5111 N.2       1 <1>        -0.2236 
     18 C18         6.1088    9.4208   31.9211 C.2       1 <1>         0.0266 
     19 C19         7.1638   10.1606   31.5694 C.2       1 <1>         0.0968 
     20 Cl20        5.0771   17.4567   31.2194 Cl        1 <1>        -0.0817 
     21 H1          4.5173   19.9288   29.8990 H         1 <1>         0.0588 
     22 H2          4.7907   20.6508   27.5378 H         1 <1>         0.0505 
     23 H3          5.7565   19.0838   25.8681 H         1 <1>         0.0585 
     24 H4          6.4964   16.8223   26.5753 H         1 <1>         0.0515 
     25 H5          7.2714   15.8119   30.8952 H         1 <1>         0.0534 
     26 H6          8.2741   16.5299   29.5976 H         1 <1>         0.0534 
     27 H7          9.1009   14.2936   30.2464 H         1 <1>         0.0542 
     28 H8          8.5268   14.2490   28.5557 H         1 <1>         0.0542 
     29 H9          5.2197   13.7580   30.4354 H         1 <1>         0.0542 
     30 H10         5.3873   12.6261   29.0398 H         1 <1>         0.0542 
     31 H11         4.6009   14.8907   28.3391 H         1 <1>         0.0534 
     32 H12         6.1294   14.3892   27.5601 H         1 <1>         0.0534 
     33 H13         6.1280    8.4562   32.4270 H         1 <1>         0.0560 
     34 H14         8.1913    9.8519   31.7676 H         1 <1>         0.1050 
@<TRIPOS>BOND
     1    2    1 ar   
     2    2    3 ar   
     3    3    4 ar   
     4    4    5 ar   
     5    5    6 ar   
     6    1    6 ar   
     7    6    7 1    
     8    7    8 1    
     9    8    9 1    
    10    9   10 1    
    11   10   11 1    
    12   11   12 1    
    13    7   12 1    
    14   10   13 am   
    15   13   14 2    
    16   13   15 1    
    17   15   16 1    
    18   16   17 2    
    19   17   18 1    
    20   18   19 2    
    21   15   19 1    
    22    1   20 1    
    23    2   21 1    
    24    3   22 1    
    25    4   23 1    
    26    5   24 1    
    27    8   25 1    
    28    8   26 1    
    29    9   27 1    
    30    9   28 1    
    31   11   29 1    
    32   11   30 1    
    33   12   31 1    
    34   12   32 1    
    35   18   33 1    
    36   19   34 1    
@<TRIPOS>SUBSTRUCTURE
     1 ****        2 TEMP              0 ****  ****    0 ROOT 
@<TRIPOS>NORMAL
@<TRIPOS>FF_PBC
FORCE_FIELD_SETUP_FEATURE Force Field Setup information
v1.0  0 0.000000 0.000000 0.000000 0.000000 0.000000 0.000000 NONE 0 0 0 0 1 0 0 0 0 0 0 0 0
