#	Name:			PISM00814.1
#	Creating user name:	baoopengkun
#	Creation time:		Fri Nov 30 17:16:25 2018

#	Modifying user name:	baoopengkun
#	Modification time:	Fri Nov 30 17:19:51 2018

@<TRIPOS>MOLECULE
PISM00814.1
   34    35     1     2     0
SMALL
GAST_HUCK


@<TRIPOS>ATOM
      1 C1          5.9795    1.0264    1.3988 C.ar      1 <1>        -0.0686 
      2 C2          6.4468    2.2041    0.8082 C.ar      1 <1>        -0.0710 
      3 C3          6.2715    2.4135   -0.5624 C.ar      1 <1>        -0.0354 
      4 C4          5.6413    1.4393   -1.3400 C.ar      1 <1>         0.1249 
      5 C5          5.1848    0.2579   -0.7501 C.ar      1 <1>        -0.0315 
      6 C6          5.3382    0.0519    0.6259 C.ar      1 <1>        -0.0307 
      7 F7          5.4789    1.6350   -2.6462 F         1 <1>        -0.1855 
      8 C8          4.8320   -1.2057    1.3012 C.2       1 <1>         0.0825 
      9 C9          5.6497   -1.8989    2.3219 C.2       1 <1>         0.2397 
     10 O10         6.9414   -2.2303    2.1422 O.3       1 <1>        -0.2865 
     11 C11         7.5151   -1.9687    0.8464 C.3       1 <1>         0.0638 
     12 O12         5.1116   -2.2133    3.3698 O.2       1 <1>        -0.3770 
     13 C13         3.6218   -1.7023    1.0126 C.2       1 <1>         0.1065 
     14 O14         2.8375   -1.0795    0.1196 O.3       1 <1>        -0.2489 
     15 C15         1.5774   -1.7295   -0.1285 C.3       1 <1>         0.2460 
     16 C16         1.7796   -3.0478   -0.8427 C.2       1 <1>         0.0005 
     17 C17         1.2725   -2.9974   -2.0729 C.2       1 <1>         0.0294 
     18 C18         0.7262   -1.6488   -2.1607 C.2       1 <1>         0.2497 
     19 O19         0.8608   -0.9061   -1.0695 O.3       1 <1>        -0.2292 
     20 C20         1.2709   -4.0690   -3.1288 C.3       1 <1>        -0.0323 
     21 O21         0.1745   -1.2296   -3.1633 O.2       1 <1>        -0.3691 
     22 H1          6.1150    0.8717    2.4650 H         1 <1>         0.0521 
     23 H2          6.9446    2.9559    1.4134 H         1 <1>         0.0588 
     24 H3          6.6228    3.3288   -1.0273 H         1 <1>         0.0545 
     25 H4          4.7209   -0.4952   -1.3771 H         1 <1>         0.0537 
     26 H5          8.4945   -2.4691    0.8342 H         1 <1>         0.0574 
     27 H6          7.6986   -0.8989    0.6757 H         1 <1>         0.0574 
     28 H7          6.9108   -2.3883    0.0265 H         1 <1>         0.0574 
     29 H8          3.3129   -2.6103    1.5377 H         1 <1>         0.1338 
     30 H9          0.9668   -1.8351    0.7845 H         1 <1>         0.1227 
     31 H10         2.2743   -3.9219   -0.4215 H         1 <1>         0.0707 
     32 H11         2.1999   -4.6567   -3.0802 H         1 <1>         0.0347 
     33 H12         1.1903   -3.6138   -4.1273 H         1 <1>         0.0347 
     34 H13         0.4120   -4.7376   -2.9699 H         1 <1>         0.0347 
@<TRIPOS>BOND
     1    2    1 ar   
     2    2    3 ar   
     3    3    4 ar   
     4    4    5 ar   
     5    5    6 ar   
     6    1    6 ar   
     7    4    7 1    
     8    6    8 1    
     9    8    9 1    
    10    9   10 1    
    11   10   11 1    
    12    9   12 2    
    13    8   13 2    
    14   13   14 1    
    15   14   15 1    
    16   15   16 1    
    17   16   17 2    
    18   17   18 1    
    19   18   19 1    
    20   15   19 1    
    21   17   20 1    
    22   18   21 2    
    23    1   22 1    
    24    2   23 1    
    25    3   24 1    
    26    5   25 1    
    27   11   26 1    
    28   11   27 1    
    29   11   28 1    
    30   13   29 1    
    31   15   30 1    
    32   16   31 1    
    33   20   32 1    
    34   20   33 1    
    35   20   34 1    
@<TRIPOS>SUBSTRUCTURE
     1 ****        2 TEMP              0 ****  ****    0 ROOT 
@<TRIPOS>NORMAL
@<TRIPOS>FF_PBC
FORCE_FIELD_SETUP_FEATURE Force Field Setup information
v1.0  0 0.000000 0.000000 0.000000 0.000000 0.000000 0.000000 NONE 0 0 0 0 1 0 0 0 0 0 0 0 0
@<TRIPOS>RENDERING_ATTRS
ANTIALIASED_LINES 
*
