#	Name:			PISM00861
#	Creating user name:	baoopengkun
#	Creation time:		Thu Dec 13 15:12:19 2018

#	Modifying user name:	baoopengkun
#	Modification time:	Thu Dec 13 22:39:04 2018

@<TRIPOS>MOLECULE
PISM00861
   24    25     1     1     0
SMALL
GAST_HUCK


@<TRIPOS>ATOM
      1 F1          0.1688    2.3458    1.6827 F         1 <1>        -0.1914 
      2 C2         -2.1206    2.7965    2.0288 C.ar      1 <1>        -0.0408 
      3 C3         -3.4268    2.8472    1.5332 C.ar      1 <1>        -0.0765 
      4 C4         -3.6794    2.4939    0.2045 C.ar      1 <1>        -0.0408 
      5 C5         -2.6292    2.0934   -0.6259 C.ar      1 <1>         0.1584 
      6 C6         -1.3210    2.0511   -0.1343 C.ar      1 <1>         0.1645 
      7 C7         -1.0705    2.3966    1.1979 C.ar      1 <1>         0.1584 
      8 F8         -2.8809    1.7526   -1.8882 F         1 <1>        -0.1914 
      9 O9         -0.2759    1.6631   -0.9754 O.3       1 <1>        -0.2708 
     10 C10         0.5964    2.7424   -1.3335 C.3       1 <1>         0.2342 
     11 O11        -0.1751    3.8046   -1.9301 O.3       1 <1>        -0.2316 
     12 C12         0.2363    3.8690   -3.1902 C.2       1 <1>         0.2494 
     13 C13         1.2925    2.9310   -3.5546 C.2       1 <1>         0.0291 
     14 C14         1.5124    2.2555   -2.4284 C.2       1 <1>        -0.0022 
     15 C15         1.9659    2.7603   -4.8888 C.3       1 <1>        -0.0323 
     16 O16        -0.2353    4.6669   -3.9819 O.2       1 <1>        -0.3691 
     17 H1         -1.9163    3.0667    3.0598 H         1 <1>         0.0541 
     18 H2         -4.2426    3.1596    2.1784 H         1 <1>         0.0503 
     19 H3         -4.6905    2.5289   -0.1881 H         1 <1>         0.0541 
     20 H4          1.1784    3.1237   -0.4784 H         1 <1>         0.1195 
     21 H5          2.2437    1.4570   -2.3102 H         1 <1>         0.0705 
     22 H6          2.0692    1.6906   -5.1253 H         1 <1>         0.0347 
     23 H7          2.9639    3.2219   -4.8580 H         1 <1>         0.0347 
     24 H8          1.3718    3.2434   -5.6791 H         1 <1>         0.0347 
@<TRIPOS>BOND
     1    7    1 1    
     2    2    3 ar   
     3    3    4 ar   
     4    4    5 ar   
     5    5    6 ar   
     6    6    7 ar   
     7    2    7 ar   
     8    5    8 1    
     9    6    9 1    
    10    9   10 1    
    11   10   11 1    
    12   11   12 1    
    13   12   13 1    
    14   13   14 2    
    15   10   14 1    
    16   13   15 1    
    17   12   16 2    
    18    2   17 1    
    19    3   18 1    
    20    4   19 1    
    21   10   20 1    
    22   14   21 1    
    23   15   22 1    
    24   15   23 1    
    25   15   24 1    
@<TRIPOS>SUBSTRUCTURE
     1 ****        2 TEMP              0 ****  ****    0 ROOT 
@<TRIPOS>NORMAL
@<TRIPOS>FF_PBC
FORCE_FIELD_SETUP_FEATURE Force Field Setup information
v1.0  0 0.000000 0.000000 0.000000 0.000000 0.000000 0.000000 NONE 0 0 0 0 1 0 0 0 0 0 0 0 0
