#	Name:			PISM01075
#	Creating user name:	14062
#	Creation time:		Sat Apr 06 20:50:39 2019

#	Modifying user name:	14062
#	Modification time:	Sat Apr 06 20:54:05 2019

@<TRIPOS>MOLECULE
PISM01075
   54    56     1     1     0
SMALL
GAST_HUCK


@<TRIPOS>ATOM
      1 N1         -8.0522    3.6474   -2.0350 N.pl3     1 BENZYL     -0.2650 
      2 C1         -6.8067    2.9913   -1.6348 C.3       1 BENZYL      0.0729 
      3 C2         -5.8790    3.9718   -0.9052 C.ar      1 BENZYL     -0.0189 
      4 C3         -6.3949    5.0768   -0.2166 C.ar      1 BENZYL     -0.0582 
      5 C4         -5.5350    6.0041    0.3805 C.ar      1 BENZYL     -0.0685 
      6 C5         -4.1522    5.8190    0.3172 C.ar      1 BENZYL     -0.0687 
      7 C6         -3.6340    4.6936   -0.3277 C.ar      1 BENZYL     -0.0685 
      8 C7         -4.4938    3.7727   -0.9323 C.ar      1 BENZYL     -0.0582 
      9 C9         -9.1952    3.4982   -1.4182 C.2       1 BENZYL      0.1417 
     10 N10       -10.2653    4.0471   -1.8485 N.2       1 BENZYL     -0.2584 
     11 C11       -11.5576    4.0276   -1.1770 C.2       1 BENZYL      0.1277 
     12 N12       -11.6563    3.6460    0.0404 N.2       1 BENZYL     -0.3508 
     13 C13       -10.3629    3.5194    0.6598 C.3       1 BENZYL      0.1050 
     14 C14        -9.4169    2.6570   -0.1917 C.3       1 BENZYL      0.1187 
     15 N15        -8.4436    2.1932    0.7848 N.2       1 BENZYL     -0.3207 
     16 C16        -9.0333    2.2314    1.9107 C.2       1 BENZYL      0.0859 
     17 N17       -10.1729    2.8509    1.9248 N.pl3     1 BENZYL     -0.2661 
     18 C18       -11.0931    2.9703    3.0530 C.3       1 BENZYL      0.0442 
     19 C19       -10.3727    3.2017    4.4082 C.3       1 BENZYL     -0.0407 
     20 C20       -11.9720    1.6951    3.0919 C.3       1 BENZYL     -0.0407 
     21 N21       -12.6251    4.4124   -1.8155 N.pl3     1 BENZYL     -0.2868 
     22 H1         -8.0416    4.2513   -2.8723 H         1 BENZYL      0.2036 
     23 H2         -6.9424    2.0863   -1.0285 H         1 BENZYL      0.0708 
     24 H3         -6.2906    2.6726   -2.5553 H         1 BENZYL      0.0708 
     25 H4         -7.4648    5.2280   -0.1380 H         1 BENZYL      0.0557 
     26 H5         -5.9433    6.8692    0.8935 H         1 BENZYL      0.0599 
     27 H6         -3.4807    6.5453    0.7667 H         1 BENZYL      0.0559 
     28 H7         -2.5614    4.5314   -0.3623 H         1 BENZYL      0.0599 
     29 H8         -4.0773    2.8997   -1.4254 H         1 BENZYL      0.0557 
     30 H9         -9.9454    4.5318    0.8159 H         1 BENZYL      0.0652 
     31 H10        -9.9597    1.7598   -0.5320 H         1 BENZYL      0.0732 
     32 H11        -8.5781    1.7562    2.7776 H         1 BENZYL      0.1459 
     33 H12       -11.7448    3.8434    2.8643 H         1 BENZYL      0.0569 
     34 H13        -9.8558    2.2949    4.7548 H         1 BENZYL      0.0253 
     35 H14       -11.1041    3.4882    5.1811 H         1 BENZYL      0.0253 
     36 H15        -9.6327    4.0102    4.3010 H         1 BENZYL      0.0253 
     37 H16       -12.5192    1.5907    2.1415 H         1 BENZYL      0.0253 
     38 H17       -12.6965    1.7474    3.9190 H         1 BENZYL      0.0253 
     39 H18       -11.3434    0.8030    3.2316 H         1 BENZYL      0.0253 
     40 H19       -13.5267    4.3888   -1.3155 H         1 BENZYL      0.1896 
     41 C41       -12.5594    4.8485   -3.2128 C.3       1 BENZYL      0.0665 
     42 C42       -11.9907    6.3000   -3.2637 C.3       1 BENZYL     -0.0300 
     43 C43       -10.9950    6.5138   -4.4348 C.3       1 BENZYL     -0.0631 
     44 C44       -13.9637    4.7100   -3.8714 C.3       1 BENZYL      0.0677 
     45 O45       -13.9701    5.0198   -5.2768 O.3       1 BENZYL     -0.3927 
     46 H20       -11.8893    4.1606   -3.7587 H         1 BENZYL      0.0586 
     47 H21       -11.4300    6.5026   -2.3364 H         1 BENZYL      0.0286 
     48 H22       -12.8135    7.0309   -3.3136 H         1 BENZYL      0.0286 
     49 H23       -10.6321    7.5524   -4.4360 H         1 BENZYL      0.0231 
     50 H24       -11.4583    6.3088   -5.4090 H         1 BENZYL      0.0231 
     51 H25       -10.1267    5.8474   -4.3162 H         1 BENZYL      0.0231 
     52 H26       -14.7034    5.3309   -3.3382 H         1 BENZYL      0.0581 
     53 H27       -14.2801    3.6582   -3.7780 H         1 BENZYL      0.0581 
     54 H28       -13.8191    5.9408   -5.4590 H         1 BENZYL      0.2095 
@<TRIPOS>BOND
     1    2    3 1    
     2    3    4 ar   
     3    3    8 ar   
     4    8    7 ar   
     5    7    6 ar   
     6    6    5 ar   
     7    5    4 ar   
     8    2    1 1    
     9    1    9 1    
    10    9   10 2    
    11   10   11 1    
    12   11   12 2    
    13   12   13 1    
    14   13   14 1    
    15    9   14 1    
    16   14   15 1    
    17   15   16 2    
    18   16   17 1    
    19   13   17 1    
    20   17   18 1    
    21   18   19 1    
    22   18   20 1    
    23   11   21 1    
    24    1   22 1    
    25    2   23 1    
    26    2   24 1    
    27    4   25 1    
    28    5   26 1    
    29    6   27 1    
    30    7   28 1    
    31    8   29 1    
    32   13   30 1    
    33   14   31 1    
    34   16   32 1    
    35   18   33 1    
    36   19   34 1    
    37   19   35 1    
    38   19   36 1    
    39   20   37 1    
    40   20   38 1    
    41   20   39 1    
    42   21   40 1    
    43   21   41 1    
    44   41   42 1    
    45   42   43 1    
    46   41   44 1    
    47   44   45 1    
    48   41   46 1    
    49   42   47 1    
    50   42   48 1    
    51   43   49 1    
    52   43   50 1    
    53   43   51 1    
    54   44   52 1    
    55   44   53 1    
    56   45   54 1    
@<TRIPOS>SUBSTRUCTURE
     1 BENZYL      2 PERM              0 ****  ****    0 ROOT 
@<TRIPOS>NORMAL
@<TRIPOS>FF_PBC
FORCE_FIELD_SETUP_FEATURE Force Field Setup information
v1.0  0 0.000000 0.000000 0.000000 0.000000 0.000000 0.000000 NONE 0 0 0 0 1 0 0 0 0 0 0 0 0
