#	Name:			PISM00232
#	Creating user name:	14062
#	Creation time:		Sat Apr 06 01:43:23 2019

#	Modifying user name:	14062
#	Modification time:	Sat Apr 06 01:45:37 2019

@<TRIPOS>MOLECULE
PISM00232
   33    33     1     2     0
SMALL
GAST_HUCK


@<TRIPOS>ATOM
      1 C1          1.9423   -4.2319    3.4648 C.2       1 BENZYL      0.1198 
      2 C1         -1.5987   -1.4119    5.7332 C.3       1 BENZYL      0.3698 
      3 C2         -0.1694   -1.9652    5.6949 C.ar      1 BENZYL      0.0444 
      4 C3          0.2482   -2.7748    4.6329 C.ar      1 BENZYL     -0.0183 
      5 C4          1.5330   -3.3313    4.6124 C.ar      1 BENZYL      0.0672 
      6 C5          2.4205   -3.0383    5.6563 C.ar      1 BENZYL      0.0656 
      7 C6          2.0227   -2.1932    6.6961 C.ar      1 BENZYL     -0.0127 
      8 C7          0.7310   -1.6618    6.7208 C.ar      1 BENZYL     -0.0328 
      9 C9          0.9807   -5.1630    2.8355 C.2       1 BENZYL     -0.0138 
     10 C10         1.2429   -5.8154    1.6915 C.2       1 BENZYL      0.0231 
     11 N11         0.4364   -6.6571    1.0821 N.pl3     1 BENZYL     -0.3035 
     12 C12        -0.8896   -6.9788    1.6215 C.3       1 BENZYL      0.0229 
     13 C13         0.8473   -7.3034   -0.1709 C.3       1 BENZYL      0.0229 
     14 O14         3.0880   -4.1906    3.0473 O.2       1 BENZYL     -0.4015 
     15 S15         4.0596   -3.7232    5.6774 S.3       1 BENZYL     -0.0741 
     16 C16         4.9223   -2.3280    4.8913 C.3       1 BENZYL      0.0025 
     17 F17        -1.6171   -0.1987    5.1210 F         1 BENZYL     -0.2270 
     18 F18        -2.0189   -1.2694    7.0192 F         1 BENZYL     -0.2270 
     19 F19        -2.4524   -2.2509    5.0866 F         1 BENZYL     -0.2270 
     20 H1         -0.4349   -2.9608    3.8112 H         1 BENZYL      0.0895 
     21 H2          2.7217   -1.9510    7.4906 H         1 BENZYL      0.0670 
     22 H3          0.4307   -1.0123    7.5377 H         1 BENZYL      0.0863 
     23 H4          0.0407   -5.2925    3.3662 H         1 BENZYL      0.0290 
     24 H5          2.2217   -5.6033    1.2571 H         1 BENZYL      0.1146 
     25 H6         -1.4220   -7.7034    0.9859 H         1 BENZYL      0.0500 
     26 H7         -1.5101   -6.0709    1.6770 H         1 BENZYL      0.0500 
     27 H8         -0.7968   -7.4275    2.6228 H         1 BENZYL      0.0500 
     28 H9          1.8361   -6.9951   -0.5448 H         1 BENZYL      0.0500 
     29 H10         0.1088   -7.0726   -0.9541 H         1 BENZYL      0.0500 
     30 H11         0.8707   -8.3935   -0.0187 H         1 BENZYL      0.0500 
     31 H12         5.9857   -2.5833    4.7749 H         1 BENZYL      0.0377 
     32 H13         4.8305   -1.4310    5.5214 H         1 BENZYL      0.0377 
     33 H14         4.4884   -2.1247    3.9011 H         1 BENZYL      0.0377 
@<TRIPOS>BOND
     1    2    3 1    
     2    3    4 ar   
     3    3    8 ar   
     4    8    7 ar   
     5    7    6 ar   
     6    6    5 ar   
     7    5    4 ar   
     8    5    1 1    
     9    1    9 1    
    10    9   10 2    
    11   10   11 1    
    12   11   12 1    
    13   11   13 1    
    14    1   14 2    
    15    6   15 1    
    16   15   16 1    
    17    2   17 1    
    18    2   18 1    
    19    2   19 1    
    20    4   20 1    
    21    7   21 1    
    22    8   22 1    
    23    9   23 1    
    24   10   24 1    
    25   12   25 1    
    26   12   26 1    
    27   12   27 1    
    28   13   28 1    
    29   13   29 1    
    30   13   30 1    
    31   16   31 1    
    32   16   32 1    
    33   16   33 1    
@<TRIPOS>SUBSTRUCTURE
     1 BENZYL      2 PERM              0 ****  ****    0 ROOT 
@<TRIPOS>NORMAL
@<TRIPOS>FF_PBC
FORCE_FIELD_SETUP_FEATURE Force Field Setup information
v1.0  0 0.000000 0.000000 0.000000 0.000000 0.000000 0.000000 NONE 0 0 0 0 1 0 0 0 0 0 0 0 0
@<TRIPOS>RENDERING_ATTRS
ANTIALIASED_LINES 
*
