#	Name:			PISM00896.1
#	Creating user name:	baoopengkun
#	Creation time:		Fri Dec 14 10:03:55 2018

#	Modifying user name:	baoopengkun
#	Modification time:	Fri Dec 14 10:12:19 2018

@<TRIPOS>MOLECULE
PISM00896.1
   34    35     1     1     0
SMALL
GAST_HUCK


@<TRIPOS>ATOM
      1 C1         17.9204   14.2396   -1.2002 C.ar      1 <1>        -0.0603 
      2 C2         18.1795   15.2670   -2.1121 C.ar      1 <1>        -0.0686 
      3 C3         18.4944   14.9617   -3.4391 C.ar      1 <1>        -0.0687 
      4 C4         18.5502   13.6275   -3.8515 C.ar      1 <1>        -0.0686 
      5 C5         18.2917   12.6014   -2.9378 C.ar      1 <1>        -0.0603 
      6 C6         17.9803   12.9016   -1.6068 C.ar      1 <1>        -0.0411 
      7 N7         15.8738   10.3423    0.3134 N.am      1 <1>        -0.2603 
      8 C8         14.6102    9.8901    0.4448 C.2       1 <1>         0.3248 
      9 O9         14.3195    8.9993    1.2255 O.2       1 <1>        -0.3773 
     10 O10        13.7178   10.4910   -0.3523 O.3       1 <1>        -0.2139 
     11 C11        12.3648   10.0478   -0.1548 C.3       1 <1>         0.2419 
     12 C12        12.1798    8.5618   -0.3557 C.2       1 <1>        -0.0022 
     13 C13        11.6252    8.0208    0.7279 C.2       1 <1>         0.0291 
     14 C14        11.4562    9.1525    1.6352 C.2       1 <1>         0.2494 
     15 O15        11.8925   10.3215    1.1798 O.3       1 <1>        -0.2315 
     16 C16        11.2720    6.5793    0.9704 C.3       1 <1>        -0.0323 
     17 O17        10.9447    9.0401    2.7363 O.2       1 <1>        -0.3691 
     18 C18        16.1972   11.4118   -0.6301 C.3       1 <1>         0.0423 
     19 C19        17.7040   11.7728   -0.6036 C.3       1 <1>         0.0011 
     20 H1         17.6707   14.4879   -0.1736 H         1 <1>         0.0557 
     21 H2         18.1359   16.3029   -1.7897 H         1 <1>         0.0599 
     22 H3         18.6949   15.7593   -4.1480 H         1 <1>         0.0559 
     23 H4         18.7944   13.3885   -4.8821 H         1 <1>         0.0599 
     24 H5         18.3329   11.5687   -3.2694 H         1 <1>         0.0557 
     25 H6         16.5876    9.9304    0.8811 H         1 <1>         0.1869 
     26 H7         11.7216   10.5883   -0.8672 H         1 <1>         0.1194 
     27 H8         12.4624    8.0179   -1.2557 H         1 <1>         0.0704 
     28 H9         10.3015    6.3554    0.5038 H         1 <1>         0.0347 
     29 H10        11.2044    6.3849    2.0513 H         1 <1>         0.0347 
     30 H11        12.0417    5.9220    0.5387 H         1 <1>         0.0347 
     31 H12        15.6142   12.3140   -0.3795 H         1 <1>         0.0542 
     32 H13        15.9275   11.0966   -1.6521 H         1 <1>         0.0542 
     33 H14        18.3045   10.8857   -0.8612 H         1 <1>         0.0445 
     34 H15        17.9926   12.0898    0.4112 H         1 <1>         0.0445 
@<TRIPOS>BOND
     1    1    2 ar   
     2    2    3 ar   
     3    4    3 ar   
     4    5    4 ar   
     5    6    5 ar   
     6    6    1 ar   
     7    7    8 am   
     8   18    7 1    
     9    8    9 2    
    10    8   10 1    
    11   10   11 1    
    12   11   12 1    
    13   12   13 2    
    14   14   13 1    
    15   15   14 1    
    16   11   15 1    
    17   13   16 1    
    18   14   17 2    
    19   19   18 1    
    20    6   19 1    
    21    1   20 1    
    22    2   21 1    
    23    3   22 1    
    24    4   23 1    
    25    5   24 1    
    26    7   25 1    
    27   11   26 1    
    28   12   27 1    
    29   16   28 1    
    30   16   29 1    
    31   16   30 1    
    32   18   31 1    
    33   18   32 1    
    34   19   33 1    
    35   19   34 1    
@<TRIPOS>SUBSTRUCTURE
     1 ****        2 TEMP              0 ****  ****    0 ROOT 
@<TRIPOS>NORMAL
@<TRIPOS>FF_PBC
FORCE_FIELD_SETUP_FEATURE Force Field Setup information
v1.0  0 0.000000 0.000000 0.000000 0.000000 0.000000 0.000000 NONE 0 0 0 0 1 0 0 0 0 0 0 0 0
