#	Name:			PISM00980
#	Creating user name:	baoopengkun
#	Creation time:		Thu Dec 13 11:41:23 2018

#	Modifying user name:	baoopengkun
#	Modification time:	Thu Dec 13 11:44:47 2018

@<TRIPOS>MOLECULE
PISM00980
   52    57     1     1     0
SMALL
GAST_HUCK


@<TRIPOS>ATOM
      1 C1         -2.0521   17.3346   -4.9531 C.3       1 <1>        -0.0391 
      2 C2         -2.0617   18.3677   -6.1269 C.3       1 <1>        -0.0470 
      3 C3         -3.5066   18.3925   -6.7127 C.3       1 <1>        -0.0347 
      4 C4         -4.0375   17.4127   -5.6955 C.3       1 <1>         0.0020 
      5 C5         -3.8705   15.9333   -5.9616 C.3       1 <1>         0.0315 
      6 C6         -2.4376   15.8739   -5.3519 C.3       1 <1>        -0.0346 
      7 C7         -4.8372   18.9931   -6.1623 C.3       1 <1>        -0.0361 
      8 C8         -5.5652   17.6315   -5.7230 C.3       1 <1>         0.0711 
      9 C9         -5.2710   16.1119   -5.2994 C.3       1 <1>        -0.0237 
     10 C10        -3.3576   17.7325   -4.3061 C.3       1 <1>        -0.0434 
     11 C11        -6.4539   17.3902   -6.9300 C.2       1 <1>         0.2646 
     12 O12        -6.0530   17.4058   -8.0840 O.2       1 <1>        -0.3118 
     13 O13        -7.7366   17.1593   -6.6206 O.3       1 <1>        -0.2585 
     14 C14        -8.5711   16.8975   -7.7692 C.3       1 <1>         0.1437 
     15 C15        -9.9850   16.6230   -7.3275 C.2       1 <1>         0.1367 
     16 O16       -10.1835   15.9688   -6.3163 O.2       1 <1>        -0.3952 
     17 C17       -11.1623   17.1210   -8.0610 C.2       1 <1>         0.0340 
     18 C18       -11.2499   17.4508   -9.5315 C.ar      1 <1>        -0.0157 
     19 C19       -12.5512   17.9031   -9.6654 C.ar      1 <1>         0.0729 
     20 N20       -13.1720   17.8172   -8.4704 N.pl3     1 <1>        -0.2717 
     21 C21       -12.3738   17.3640   -7.5381 C.2       1 <1>         0.0477 
     22 C22       -10.3827   17.3743  -10.6209 C.ar      1 <1>        -0.0808 
     23 C23       -10.8722   17.8346  -11.8484 C.ar      1 <1>        -0.0862 
     24 C24       -12.1825   18.3206  -11.9764 C.ar      1 <1>        -0.0745 
     25 C25       -13.0644   18.3586  -10.8840 C.ar      1 <1>        -0.0218 
     26 C26       -14.5175   18.8602  -10.9595 C.3       1 <1>        -0.0240 
     27 C27       -14.9789   19.3763  -12.3475 C.3       1 <1>        -0.0565 
     28 Br28       -3.9669   15.3113   -7.8092 Br        1 <1>        -0.0841 
     29 H1         -1.1620   17.4008   -4.3051 H         1 <1>         0.0301 
     30 H2         -1.3319   18.0541   -6.8903 H         1 <1>         0.0271 
     31 H3         -1.7924   19.3800   -5.7846 H         1 <1>         0.0271 
     32 H4         -3.5889   18.0458   -7.7541 H         1 <1>         0.0304 
     33 H5         -1.7057   15.5002   -6.0843 H         1 <1>         0.0281 
     34 H6         -2.4384   15.1930   -4.4856 H         1 <1>         0.0281 
     35 H7         -5.3436   19.5541   -6.9677 H         1 <1>         0.0259 
     36 H8         -4.7367   19.7324   -5.3478 H         1 <1>         0.0259 
     37 H9         -5.9627   15.3618   -5.7217 H         1 <1>         0.0270 
     38 H10        -5.3142   15.9363   -4.2099 H         1 <1>         0.0270 
     39 H11        -3.5884   17.1001   -3.4344 H         1 <1>         0.0272 
     40 H12        -3.3236   18.7719   -3.9434 H         1 <1>         0.0272 
     41 H13        -8.2155   16.0068   -8.3113 H         1 <1>         0.0831 
     42 H14        -8.5603   17.7738   -8.4355 H         1 <1>         0.0831 
     43 H15       -14.1559   18.0763   -8.3050 H         1 <1>         0.2312 
     44 H16       -12.6270   17.2046   -6.4886 H         1 <1>         0.1067 
     45 H17        -9.3805   16.9718  -10.5350 H         1 <1>         0.0471 
     46 H18       -10.2231   17.8125  -12.7189 H         1 <1>         0.0500 
     47 H19       -12.4963   18.6680  -12.9532 H         1 <1>         0.0461 
     48 H20       -14.6303   19.6795  -10.2310 H         1 <1>         0.0409 
     49 H21       -15.1770   18.0298  -10.6593 H         1 <1>         0.0409 
     50 H22       -14.3585   20.2267  -12.6711 H         1 <1>         0.0250 
     51 H23       -16.0249   19.7178  -12.2898 H         1 <1>         0.0250 
     52 H24       -14.9226   18.5737  -13.0994 H         1 <1>         0.0250 
@<TRIPOS>BOND
     1    2    1 1    
     2    2    3 1    
     3    3    4 1    
     4    4    5 1    
     5    5    6 1    
     6    1    6 1    
     7    3    7 1    
     8    7    8 1    
     9    8    9 1    
    10    5    9 1    
    11    8    4 1    
    12    4   10 1    
    13    1   10 1    
    14    8   11 1    
    15   11   12 2    
    16   11   13 1    
    17   13   14 1    
    18   14   15 1    
    19   15   16 2    
    20   15   17 1    
    21   17   18 1    
    22   18   19 ar   
    23   19   20 1    
    24   20   21 1    
    25   17   21 2    
    26   18   22 ar   
    27   22   23 ar   
    28   23   24 ar   
    29   24   25 ar   
    30   19   25 ar   
    31   25   26 1    
    32   26   27 1    
    33    5   28 1    
    34    1   29 1    
    35    2   30 1    
    36    2   31 1    
    37    3   32 1    
    38    6   33 1    
    39    6   34 1    
    40    7   35 1    
    41    7   36 1    
    42    9   37 1    
    43    9   38 1    
    44   10   39 1    
    45   10   40 1    
    46   14   41 1    
    47   14   42 1    
    48   20   43 1    
    49   21   44 1    
    50   22   45 1    
    51   23   46 1    
    52   24   47 1    
    53   26   48 1    
    54   26   49 1    
    55   27   50 1    
    56   27   51 1    
    57   27   52 1    
@<TRIPOS>SUBSTRUCTURE
     1 ****        2 TEMP              0 ****  ****    0 ROOT 
@<TRIPOS>NORMAL
@<TRIPOS>FF_PBC
FORCE_FIELD_SETUP_FEATURE Force Field Setup information
v1.0  0 0.000000 0.000000 0.000000 0.000000 0.000000 0.000000 NONE 0 0 0 0 1 0 0 0 0 0 0 0 0
