#	Name:			PISM00411
#	Creating user name:	malab
#	Creation time:		Tue Apr 09 23:41:05 2019

#	Modifying user name:	malab
#	Modification time:	Tue Apr 09 23:46:36 2019

@<TRIPOS>MOLECULE
PISM00411
   39    39     1     2     0
SMALL
USER_CHARGES


@<TRIPOS>ATOM
      1 C1         -8.5976   -3.9926   -4.9121 C.3       1 <1>         0.0000 
      2 C2         -8.0333   -5.4416   -4.8613 C.3       1 <1>         0.0000 
      3 C3         -6.5546   -5.4327   -5.1289 C.2       1 <1>         0.0000 
      4 C4         -5.7450   -4.2390   -4.8387 C.2       1 <1>         0.0000 
      5 C5         -6.2821   -3.1347   -4.3009 C.2       1 <1>         0.0000 
      6 C6         -7.7656   -3.0619   -3.9696 C.3       1 <1>         0.0000 
      7 O7         -6.0138   -6.4234   -5.5938 O.2       1 <1>         0.0000 
      8 C8         -5.4363   -1.9212   -3.9800 C.3       1 <1>         0.0000 
      9 C9        -10.0932   -4.0202   -4.4746 C.3       1 <1>         0.0000 
     10 C10        -8.5266   -3.4573   -6.3769 C.3       1 <1>         0.0000 
     11 F11        -4.4466   -4.2899   -5.1251 F         1 <1>         0.0000 
     12 H1         -8.5399   -6.0627   -5.6169 H         1 <1>         0.0000 
     13 H2         -8.1991   -5.9090   -3.8790 H         1 <1>         0.0000 
     14 O14        -8.2876   -1.7293   -4.1543 O.3       1 <1>         0.0000 
     15 C15        -7.8931   -3.5058   -2.5261 C.2       1 <1>         0.0000 
     16 H3         -4.3603   -2.1052   -4.1143 H         1 <1>         0.0000 
     17 H4         -5.5931   -1.6273   -2.9310 H         1 <1>         0.0000 
     18 H5         -5.7170   -1.0858   -4.6383 H         1 <1>         0.0000 
     19 C19        -8.7368   -2.9549   -1.6441 C.2       1 <1>         0.0000 
     20 C20        -8.8251   -3.4191   -0.2451 C.2       1 <1>         0.0000 
     21 C21        -8.7350   -2.5653    0.7857 C.2       1 <1>         0.0000 
     22 C22        -8.4967   -1.1106    0.6903 C.2       1 <1>         0.0000 
     23 C23        -9.0294   -4.8933    0.0148 C.3       1 <1>         0.0000 
     24 O24        -8.6168   -0.4283    1.6974 O.2       1 <1>         0.0000 
     25 O25        -8.1440   -0.5595   -0.4770 O.3       1 <1>         0.0000 
     26 H6        -10.6838   -4.6361   -5.1700 H         1 <1>         0.0000 
     27 H7        -10.5192   -3.0054   -4.4691 H         1 <1>         0.0000 
     28 H8        -10.2103   -4.4484   -3.4681 H         1 <1>         0.0000 
     29 H9         -7.4901   -3.3952   -6.7388 H         1 <1>         0.0000 
     30 H10        -8.9717   -2.4537   -6.4519 H         1 <1>         0.0000 
     31 H11        -9.0819   -4.1199   -7.0584 H         1 <1>         0.0000 
     32 H12        -7.9121   -1.0722   -3.5788 H         1 <1>         0.0000 
     33 H13        -7.2598   -4.3238   -2.1802 H         1 <1>         0.0000 
     34 H14        -9.3976   -2.1404   -1.9373 H         1 <1>         0.0000 
     35 H15        -8.8358   -2.9630    1.7966 H         1 <1>         0.0000 
     36 H16        -9.3236   -5.4225   -0.9046 H         1 <1>         0.0000 
     37 H17        -9.8211   -5.0477    0.7642 H         1 <1>         0.0000 
     38 H18        -8.0917   -5.3304    0.3894 H         1 <1>         0.0000 
     39 H19        -8.0096    0.3813   -0.4324 H         1 <1>         0.0000 
@<TRIPOS>BOND
     1    2    1 1    
     2    2    3 1    
     3    3    4 1    
     4    4    5 2    
     5    5    6 1    
     6    1    6 1    
     7    3    7 2    
     8    5    8 1    
     9    1    9 1    
    10    1   10 1    
    11    4   11 1    
    12    2   12 1    
    13    2   13 1    
    14    6   14 1    
    15    6   15 1    
    16    8   16 1    
    17    8   17 1    
    18    8   18 1    
    19   15   19 2    
    20   19   20 1    
    21   20   21 2    
    22   21   22 1    
    23   20   23 1    
    24   22   24 2    
    25   22   25 1    
    26    9   26 1    
    27    9   27 1    
    28    9   28 1    
    29   10   29 1    
    30   10   30 1    
    31   10   31 1    
    32   14   32 1    
    33   15   33 1    
    34   19   34 1    
    35   21   35 1    
    36   23   36 1    
    37   23   37 1    
    38   23   38 1    
    39   25   39 1    
@<TRIPOS>SUBSTRUCTURE
     1 ****        2 TEMP              0 ****  ****    0 ROOT 
@<TRIPOS>NORMAL
@<TRIPOS>FF_PBC
FORCE_FIELD_SETUP_FEATURE Force Field Setup information
v1.0  0 0.000000 0.000000 0.000000 0.000000 0.000000 0.000000 NONE 0 0 0 0 0 0 0 0 0 0 0 0 0
@<TRIPOS>RENDERING_ATTRS
ANTIALIASED_LINES 
*
