#	Name:			PISM00775
#	Creating user name:	baoopengkun
#	Creation time:		Tue Nov 20 09:58:54 2018

#	Modifying user name:	baoopengkun
#	Modification time:	Tue Nov 20 10:25:10 2018

@<TRIPOS>MOLECULE
PISM00775
   49    52     1     2     0
SMALL
GAST_HUCK


@<TRIPOS>ATOM
      1 C1         -3.6724    8.6543   -1.9520 C.3       1 <1>        -0.0240 
      2 C2         -5.0991    8.5218   -1.3769 C.3       1 <1>        -0.0149 
      3 C3         -5.1075    7.0889   -0.9285 C.2       1 <1>        -0.0648 
      4 C4         -3.9585    6.2779   -1.4746 C.3       1 <1>         0.0394 
      5 C5         -3.3552    7.2490   -2.5315 C.3       1 <1>         0.0130 
      6 C6         -6.0617    6.5899   -0.1341 C.2       1 <1>        -0.1285 
      7 C7         -2.9405    5.8942   -0.3618 C.3       1 <1>         0.1096 
      8 C8         -1.8950    7.0038   -2.8654 C.2       1 <1>        -0.0675 
      9 C9         -1.4705    5.5658   -3.0720 C.3       1 <1>        -0.0171 
     10 C10        -0.9039    4.9969   -1.7448 C.3       1 <1>        -0.0329 
     11 C11        -2.0332    4.6926   -0.7256 C.3       1 <1>         0.0177 
     12 C12        -0.9907    7.9874   -2.9849 C.2       1 <1>        -0.1286 
     13 O13        -3.5795    5.4401    0.8408 O.3       1 <1>        -0.2697 
     14 C14        -2.7736    4.5723    1.4592 C.2       1 <1>         0.2399 
     15 C15        -1.5607    4.1837    0.6620 C.3       1 <1>         0.0895 
     16 O16        -3.0241    4.1041    2.5565 O.2       1 <1>        -0.3700 
     17 C17        -0.2907    4.8579    1.2453 C.3       1 <1>         0.0751 
     18 O18        -0.4047    6.2888    1.1577 O.3       1 <1>        -0.3320 
     19 C19         0.7593    6.9886    1.6231 C.3       1 <1>         0.2149 
     20 O20         1.0077    6.6973    3.0127 O.3       1 <1>        -0.2355 
     21 C21         0.8140    7.8456    3.6498 C.2       1 <1>         0.2491 
     22 O22         0.9357    7.9408    4.8589 O.2       1 <1>        -0.3691 
     23 C23         0.4580    8.9802    2.8049 C.2       1 <1>         0.0288 
     24 C24         0.4313    8.4598    1.5797 C.2       1 <1>        -0.0067 
     25 C25         0.1754   10.3975    3.2218 C.3       1 <1>        -0.0323 
     26 H1         -2.9802    8.8890   -1.1268 H         1 <1>         0.0323 
     27 H2         -3.6159    9.4584   -2.7042 H         1 <1>         0.0323 
     28 H3         -5.8512    8.6409   -2.1734 H         1 <1>         0.0462 
     29 H4         -5.3053    9.2370   -0.5642 H         1 <1>         0.0462 
     30 H5         -4.3731    5.3695   -1.9405 H         1 <1>         0.0554 
     31 H6         -3.9294    7.1417   -3.4682 H         1 <1>         0.0527 
     32 H7         -6.0563    5.5426    0.1653 H         1 <1>         0.0075 
     33 H8         -6.8701    7.2246    0.2273 H         1 <1>         0.0075 
     34 H9         -2.3458    6.7792   -0.0934 H         1 <1>         0.0686 
     35 H35        -1.4350    3.0878    0.6723 H         1 <1>         0.0581 
     36 H10        -0.6744    5.5312   -3.8347 H         1 <1>         0.0460 
     37 H11        -2.3004    4.9500   -3.4527 H         1 <1>         0.0460 
     38 H12        -0.3654    4.0556   -1.9458 H         1 <1>         0.0297 
     39 H13        -0.1818    5.7220   -1.3387 H         1 <1>         0.0297 
     40 H14        -2.6788    3.9037   -1.1515 H         1 <1>         0.0362 
     41 H15        -1.2233    9.0427   -2.8628 H         1 <1>         0.0075 
     42 H16         0.0498    7.7627   -3.2182 H         1 <1>         0.0075 
     43 H17         0.5899    4.5003    0.6872 H         1 <1>         0.0593 
     44 H18        -0.1822    4.5491    2.2986 H         1 <1>         0.0593 
     45 H19         1.6524    6.7744    1.0130 H         1 <1>         0.1143 
     46 H20         0.1975    9.0096    0.6688 H         1 <1>         0.0701 
     47 H21        -0.6561   10.8092    2.6303 H         1 <1>         0.0347 
     48 H22         1.0730   11.0126    3.0607 H         1 <1>         0.0347 
     49 H23        -0.0959   10.4308    4.2876 H         1 <1>         0.0347 
@<TRIPOS>BOND
     1    2    1 1    
     2    2    3 1    
     3    3    4 1    
     4    4    5 1    
     5    1    5 1    
     6    3    6 2    
     7    4    7 1    
     8    5    8 1    
     9    8    9 1    
    10   11   10 1    
    11    9   10 1    
    12    7   11 1    
    13    8   12 2    
    14    7   13 1    
    15   13   14 1    
    16   14   15 1    
    17   11   15 1    
    18   14   16 2    
    19   15   17 1    
    20   17   18 1    
    21   18   19 1    
    22   19   20 1    
    23   20   21 1    
    24   21   22 2    
    25   21   23 1    
    26   23   24 2    
    27   19   24 1    
    28   23   25 1    
    29    1   26 1    
    30    1   27 1    
    31    2   28 1    
    32    2   29 1    
    33    4   30 1    
    34    5   31 1    
    35    6   32 1    
    36    6   33 1    
    37   15   35 1    
    38    7   34 1    
    39    9   36 1    
    40    9   37 1    
    41   10   38 1    
    42   10   39 1    
    43   11   40 1    
    44   12   41 1    
    45   12   42 1    
    46   17   43 1    
    47   17   44 1    
    48   19   45 1    
    49   24   46 1    
    50   25   47 1    
    51   25   48 1    
    52   25   49 1    
@<TRIPOS>SUBSTRUCTURE
     1 ****        2 TEMP              0 ****  ****    0 ROOT 
@<TRIPOS>NORMAL
@<TRIPOS>FF_PBC
FORCE_FIELD_SETUP_FEATURE Force Field Setup information
v1.0  0 0.000000 0.000000 0.000000 0.000000 0.000000 0.000000 NONE 0 0 0 0 1 0 0 0 0 0 0 0 0
@<TRIPOS>RENDERING_ATTRS
LINES           
1,2,3,4,5,6,7,8,9,10,11,12,13,14,15,16,17,18,35
