#	Name:			PISM00660
#	Creating user name:	baoopengkun
#	Creation time:		Sat Jan 12 19:36:55 2019

#	Modifying user name:	baoopengkun
#	Modification time:	Sat Jan 12 19:44:36 2019

@<TRIPOS>MOLECULE
PISM00660
   18    18     1     1     0
SMALL
GAST_HUCK


@<TRIPOS>ATOM
      1 I1         -5.7300   -5.6990    0.1012 I         1 <1>        -0.0298 
      2 C2         -3.7805   -5.0878   -0.0742 C.ar      1 <1>         0.0737 
      3 N3         -2.7891   -5.9893    0.0754 N.ar      1 <1>        -0.2951 
      4 C4         -1.4929   -5.6398   -0.0575 C.ar      1 <1>         0.0333 
      5 C5         -1.1274   -4.3171   -0.3338 C.ar      1 <1>         0.0899 
      6 C6         -2.1420   -3.3598   -0.4545 C.ar      1 <1>        -0.0195 
      7 C7         -3.4790   -3.7509   -0.3447 C.ar      1 <1>        -0.0310 
      8 N8          0.1829   -3.9910   -0.4650 N.pl3     1 <1>        -0.2205 
      9 C9          0.6181   -3.1992   -1.4093 C.2       1 <1>         0.3236 
     10 O10        -0.1087   -2.6998   -2.2545 O.2       1 <1>        -0.3368 
     11 H1         -0.7313   -6.4043    0.0501 H         1 <1>         0.0736 
     12 H2         -1.9056   -2.3147   -0.6227 H         1 <1>         0.0649 
     13 O13         2.8325   -3.3526   -0.6711 O.2       1 <1>        -0.3283 
     14 C14         2.0648   -2.8790   -1.4934 C.2       1 <1>         0.3482 
     15 H3         -4.2760   -3.0243   -0.4655 H         1 <1>         0.0683 
     16 H4          0.8678   -4.3996    0.1910 H         1 <1>         0.2137 
     17 H5          1.8564   -1.7740   -3.0333 H         1 <1>         0.2542 
     18 O21         2.5449   -2.0806   -2.4525 O.3       1 <1>        -0.2821 
@<TRIPOS>BOND
     1    2    1 1    
     2    3    2 ar   
     3    4    3 ar   
     4    5    4 ar   
     5    5    6 ar   
     6    6    7 ar   
     7    7    2 ar   
     8    8    5 1    
     9    9    8 1    
    10    9   10 2    
    11   14    9 1    
    12    4   11 1    
    13   14   13 2    
    14    6   12 1    
    15    7   15 1    
    16    8   16 1    
    17   18   17 1    
    18   14   18 1    
@<TRIPOS>SUBSTRUCTURE
     1 ****       14 TEMP              0 ****  ****    0 ROOT 
@<TRIPOS>NORMAL
@<TRIPOS>FF_PBC
FORCE_FIELD_SETUP_FEATURE Force Field Setup information
v1.0  0 0.000000 0.000000 0.000000 0.000000 0.000000 0.000000 NONE 0 0 0 0 1 0 0 0 0 0 0 0 0
