#	Name:			PISM00350
#	Creating user name:	baoopengkun
#	Creation time:		Sun Dec 16 03:29:03 2018

#	Modifying user name:	baoopengkun
#	Modification time:	Sun Dec 16 03:37:06 2018

@<TRIPOS>MOLECULE
PISM00350
   38    39     1     1     0
SMALL
GAST_HUCK


@<TRIPOS>ATOM
      1 C1        -20.9087   11.4668   43.6160 C.3       1 <1>        -0.0334 
      2 C2        -19.6097    9.2928   45.1906 C.3       1 <1>        -0.0363 
      3 H2        -17.0792   12.6980   47.2169 H         1 <1>         0.0482 
      4 H3        -17.6925   14.3311   45.4820 H         1 <1>         0.0544 
      5 C5        -19.6966   11.7548   44.5167 C.ar      1 <1>        -0.0245 
      6 C6        -19.2026   10.7644   45.3814 C.ar      1 <1>        -0.0411 
      7 C7        -18.3260   11.1223   46.4171 C.ar      1 <1>        -0.0508 
      8 C8        -17.7850   12.4118   46.4434 C.ar      1 <1>        -0.0721 
      9 C9        -18.1442   13.3449   45.4699 C.ar      1 <1>        -0.0554 
     10 C10       -19.0809   13.0145   44.4874 C.ar      1 <1>         0.0960 
     11 C11       -17.9469   10.1346   47.5317 C.3       1 <1>        -0.0353 
     12 S12       -19.4785   14.2496   43.2579 S.o2      1 <1>         0.0631 
     13 O13       -19.8164   13.5943   42.0101 O.2       1 <1>        -0.1522 
     14 O14       -18.4464   15.2667   43.2542 O.2       1 <1>        -0.1522 
     15 N15       -20.8455   14.9298   43.8970 N.am      1 <1>        -0.2354 
     16 C16       -21.8752   15.5086   43.0424 C.3       1 <1>         0.0754 
     17 C17       -23.0121   14.5025   42.8624 C.ar      1 <1>         0.0465 
     18 N18       -23.2671   14.0028   41.6349 N.ar      1 <1>        -0.2964 
     19 C19       -24.2158   13.0655   41.4324 C.ar      1 <1>         0.0028 
     20 C20       -24.9953   12.6081   42.4984 C.ar      1 <1>        -0.0410 
     21 C21       -24.7798   13.1350   43.7743 C.ar      1 <1>        -0.0488 
     22 C22       -23.7798   14.0934   43.9576 C.ar      1 <1>        -0.0308 
     23 H4        -20.9663   14.9663   44.8904 H         1 <1>         0.1701 
     24 H5        -21.4563   15.7524   42.0536 H         1 <1>         0.0668 
     25 H6        -22.2783   16.4358   43.4792 H         1 <1>         0.0668 
     26 H7        -24.3677   12.6704   40.4336 H         1 <1>         0.0803 
     27 H8        -25.7586   11.8536   42.3363 H         1 <1>         0.0652 
     28 H9        -25.3826   12.8029   44.6138 H         1 <1>         0.0719 
     29 H10       -23.6007   14.5131   44.9418 H         1 <1>         0.0652 
     30 H1        -21.4992   12.3753   43.4480 H         1 <1>         0.0375 
     31 H11       -21.5892   10.7367   44.0774 H         1 <1>         0.0375 
     32 H12       -20.5632   11.0796   42.6460 H         1 <1>         0.0375 
     33 H13       -19.8082    9.0687   44.1323 H         1 <1>         0.0361 
     34 H14       -20.5145    9.0853   45.7811 H         1 <1>         0.0361 
     35 H15       -18.8102    8.6087   45.5083 H         1 <1>         0.0361 
     36 H16       -18.8201    9.5363   47.8317 H         1 <1>         0.0374 
     37 H17       -17.5823   10.6602   48.4271 H         1 <1>         0.0374 
     38 H18       -17.1501    9.4671   47.1715 H         1 <1>         0.0374 
@<TRIPOS>BOND
     1    5    1 1    
     2    6    2 1    
     3    8    3 1    
     4    9    4 1    
     5    6    5 ar   
     6   15   23 1    
     7    6    7 ar   
     8    7    8 ar   
     9    8    9 ar   
    10   10    9 ar   
    11    5   10 ar   
    12    7   11 1    
    13   10   12 1    
    14   12   13 2    
    15   12   14 2    
    16   12   15 1    
    17   15   16 1    
    18   16   17 1    
    19   17   18 ar   
    20   18   19 ar   
    21   19   20 ar   
    22   21   20 ar   
    23   22   21 ar   
    24   17   22 ar   
    25   16   24 1    
    26   16   25 1    
    27   19   26 1    
    28   20   27 1    
    29   21   28 1    
    30   22   29 1    
    31    1   30 1    
    32    1   31 1    
    33    1   32 1    
    34    2   33 1    
    35    2   34 1    
    36    2   35 1    
    37   11   36 1    
    38   11   37 1    
    39   11   38 1    
@<TRIPOS>SUBSTRUCTURE
     1 ****        6 TEMP              0 ****  ****    0 ROOT 
@<TRIPOS>NORMAL
@<TRIPOS>FF_PBC
FORCE_FIELD_SETUP_FEATURE Force Field Setup information
v1.0  0 0.000000 0.000000 0.000000 0.000000 0.000000 0.000000 NONE 0 0 0 0 1 0 0 0 0 0 0 0 0
