#	Name:			PISM00885
#	Creating user name:	baoopengkun
#	Creation time:		Fri Dec 14 09:30:18 2018

#	Modifying user name:	baoopengkun
#	Modification time:	Fri Dec 14 09:38:52 2018

@<TRIPOS>MOLECULE
PISM00885
   29    31     1     1     0
SMALL
GAST_HUCK


@<TRIPOS>ATOM
      1 C1          6.4099   -5.6214   -3.8547 C.ar      1 <1>        -0.0320 
      2 C2          6.1983   -5.4409   -5.2232 C.ar      1 <1>         0.1284 
      3 C3          5.5052   -4.3163   -5.6753 C.ar      1 <1>        -0.0320 
      4 C4          5.0262   -3.3760   -4.7583 C.ar      1 <1>        -0.0613 
      5 C5          5.2339   -3.5492   -3.3847 C.ar      1 <1>        -0.0231 
      6 C6          5.9298   -4.6802   -2.9387 C.ar      1 <1>        -0.0613 
      7 C7          4.6936   -2.5004   -2.4341 C.2       1 <1>         0.0677 
      8 N8          3.9432   -1.3516   -2.8823 N.2       1 <1>        -0.2173 
      9 N9          3.6721   -0.7012   -1.7385 N.2       1 <1>        -0.0862 
     10 N10         4.1858   -1.3762   -0.6896 N.pl3     1 <1>        -0.1240 
     11 C11         4.8047   -2.4469   -1.1022 C.2       1 <1>         0.0921 
     12 C12         4.0917   -0.9305    0.6892 C.3       1 <1>         0.2441 
     13 C13         2.8407   -1.5193    1.2938 C.2       1 <1>         0.0017 
     14 C14         3.1501   -2.3381    2.2975 C.2       1 <1>         0.0295 
     15 C15         4.6062   -2.2759    2.3538 C.2       1 <1>         0.2498 
     16 O16         5.1785   -1.4631    1.4742 O.3       1 <1>        -0.2284 
     17 O17         5.2605   -2.9225    3.1528 O.2       1 <1>        -0.3691 
     18 C18         2.2274   -3.1504    3.1646 C.3       1 <1>        -0.0323 
     19 H1          6.9494   -6.4972   -3.5088 H         1 <1>         0.0595 
     20 H2          5.3417   -4.1782   -6.7391 H         1 <1>         0.0595 
     21 F21         6.6560   -6.3378   -6.0932 F         1 <1>        -0.1864 
     22 H3          4.4893   -2.5054   -5.1219 H         1 <1>         0.0574 
     23 H4          6.1074   -4.8464   -1.8832 H         1 <1>         0.0574 
     24 H5          5.3161   -3.1592   -0.4576 H         1 <1>         0.1069 
     25 H6          4.0877    0.1703    0.7374 H         1 <1>         0.1243 
     26 H7          1.8306   -1.3050    0.9464 H         1 <1>         0.0709 
     27 H8          1.2989   -3.3906    2.6251 H         1 <1>         0.0347 
     28 H9          1.9805   -2.5780    4.0708 H         1 <1>         0.0347 
     29 H10         2.7214   -4.0890    3.4575 H         1 <1>         0.0347 
@<TRIPOS>BOND
     1    2    1 ar   
     2    2    3 ar   
     3    3    4 ar   
     4    4    5 ar   
     5    5    6 ar   
     6    1    6 ar   
     7    5    7 1    
     8    7    8 1    
     9    8    9 2    
    10    9   10 1    
    11   10   11 1    
    12    7   11 2    
    13   10   12 1    
    14   12   13 1    
    15   13   14 2    
    16   14   15 1    
    17   15   16 1    
    18   12   16 1    
    19   15   17 2    
    20   14   18 1    
    21    1   19 1    
    22    3   20 1    
    23    2   21 1    
    24    4   22 1    
    25    6   23 1    
    26   11   24 1    
    27   12   25 1    
    28   13   26 1    
    29   18   27 1    
    30   18   28 1    
    31   18   29 1    
@<TRIPOS>SUBSTRUCTURE
     1 ****        2 TEMP              0 ****  ****    0 ROOT 
@<TRIPOS>NORMAL
@<TRIPOS>FF_PBC
FORCE_FIELD_SETUP_FEATURE Force Field Setup information
v1.0  0 0.000000 0.000000 0.000000 0.000000 0.000000 0.000000 NONE 0 0 0 0 1 0 0 0 0 0 0 0 0
