#	Name:			PISM00165
#	Creating user name:	14062
#	Creation time:		Sun Mar 31 13:47:55 2019

#	Modifying user name:	14062
#	Modification time:	Sun Mar 31 13:53:56 2019

@<TRIPOS>MOLECULE
PISM00165
   41    43     1     1     0
SMALL
GAST_HUCK


@<TRIPOS>ATOM
      1 C1          6.9758   10.9662   -8.2238 C.2       1 BENZYL     -0.0628 
      2 C1          7.8231   11.6567   -7.4473 C.2       1 BENZYL     -0.0579 
      3 C2          9.3240   11.7548   -7.6564 C.ar      1 BENZYL     -0.0280 
      4 C3         10.0419   10.9222   -8.5272 C.ar      1 BENZYL     -0.0559 
      5 C4         11.4209   11.0806   -8.6954 C.ar      1 BENZYL     -0.0622 
      6 C5         12.1106   12.0546   -7.9700 C.ar      1 BENZYL     -0.0626 
      7 C6         11.4109   12.8755   -7.0828 C.ar      1 BENZYL     -0.0622 
      8 C7         10.0290   12.7259   -6.9331 C.ar      1 BENZYL     -0.0559 
      9 C9          5.5222   10.8976   -7.9592 C.2       1 BENZYL     -0.0329 
     10 C10         4.7153    9.9640   -8.4812 C.2       1 BENZYL      0.1257 
     11 C11         3.2708    9.8379   -8.2716 C.2       1 BENZYL      0.2629 
     12 N12         2.7418    8.7498   -8.8654 N.am      1 BENZYL     -0.1499 
     13 C13         3.6109    7.9853   -9.5750 C.2       1 BENZYL      0.1693 
     14 S14         5.2676    8.6601   -9.5412 S.3       1 BENZYL      0.0309 
     15 O15         2.6302   10.6438   -7.6202 O.2       1 BENZYL     -0.3682 
     16 S16         3.3061    6.5437  -10.4427 S.2       1 BENZYL     -0.2503 
     17 C17         1.3073    8.4705   -8.7129 C.3       1 BENZYL      0.2061 
     18 C18         0.7471    7.2753   -9.4455 C.2       1 BENZYL      0.2762 
     19 O19         0.6105    6.1874   -8.9077 O.2       1 BENZYL     -0.3642 
     20 O20         0.3990    7.4791  -10.7178 O.3       1 BENZYL     -0.2890 
     21 C21         0.9195    8.3072   -7.2341 C.ar      1 BENZYL      0.0093 
     22 C22         1.8611    7.9181   -6.2737 C.ar      1 BENZYL     -0.0550 
     23 C23         1.4994    7.8271   -4.9265 C.ar      1 BENZYL     -0.0680 
     24 C24         0.1813    8.0794   -4.5357 C.ar      1 BENZYL     -0.0684 
     25 C25        -0.7725    8.4278   -5.4951 C.ar      1 BENZYL     -0.0680 
     26 C26        -0.4021    8.5466   -6.8374 C.ar      1 BENZYL     -0.0550 
     27 H1          7.3351   10.4258   -9.0943 H         1 BENZYL      0.0614 
     28 H2          7.4027   12.1922   -6.5950 H         1 BENZYL      0.0590 
     29 H3          9.5560   10.1323   -9.0848 H         1 BENZYL      0.0615 
     30 H4         11.9602   10.4432   -9.3900 H         1 BENZYL      0.0615 
     31 H5         13.1829   12.1718   -8.0944 H         1 BENZYL      0.0610 
     32 H6         11.9418   13.6304   -6.5101 H         1 BENZYL      0.0615 
     33 H7          9.5050   13.3792   -6.2428 H         1 BENZYL      0.0615 
     34 H8          5.0770   11.6424   -7.2987 H         1 BENZYL      0.0599 
     35 H9          0.7665    9.3480   -9.1019 H         1 BENZYL      0.1058 
     36 H10         0.0796    6.6752  -11.1141 H         1 BENZYL      0.2542 
     37 H11         2.8794    7.6804   -6.5639 H         1 BENZYL      0.0562 
     38 H12         2.2424    7.5587   -4.1818 H         1 BENZYL      0.0600 
     39 H13        -0.1007    8.0032   -3.4899 H         1 BENZYL      0.0561 
     40 H14        -1.8016    8.6056   -5.1976 H         1 BENZYL      0.0600 
     41 H15        -1.1514    8.8238   -7.5724 H         1 BENZYL      0.0562 
@<TRIPOS>BOND
     1    2    3 1    
     2    3    4 ar   
     3    3    8 ar   
     4    8    7 ar   
     5    7    6 ar   
     6    6    5 ar   
     7    5    4 ar   
     8    2    1 2    
     9    1    9 1    
    10    9   10 2    
    11   10   11 1    
    12   11   12 am   
    13   12   13 am   
    14   13   14 1    
    15   10   14 1    
    16   11   15 2    
    17   13   16 2    
    18   12   17 1    
    19   17   18 1    
    20   18   19 2    
    21   18   20 1    
    22   17   21 1    
    23   21   22 ar   
    24   22   23 ar   
    25   23   24 ar   
    26   24   25 ar   
    27   25   26 ar   
    28   26   21 ar   
    29    1   27 1    
    30    2   28 1    
    31    4   29 1    
    32    5   30 1    
    33    6   31 1    
    34    7   32 1    
    35    8   33 1    
    36    9   34 1    
    37   17   35 1    
    38   20   36 1    
    39   22   37 1    
    40   23   38 1    
    41   24   39 1    
    42   25   40 1    
    43   26   41 1    
@<TRIPOS>SUBSTRUCTURE
     1 BENZYL      2 PERM              0 ****  ****    0 ROOT 
@<TRIPOS>NORMAL
@<TRIPOS>FF_PBC
FORCE_FIELD_SETUP_FEATURE Force Field Setup information
v1.0  0 0.000000 0.000000 0.000000 0.000000 0.000000 0.000000 NONE 0 0 0 0 1 0 0 0 0 0 0 0 0
