#	Name:			PISM01131
#	Creating user name:	14062
#	Creation time:		Sat Apr 06 23:23:57 2019

#	Modifying user name:	14062
#	Modification time:	Sat Apr 06 23:25:52 2019

@<TRIPOS>MOLECULE
PISM01131
   15    15     1     1     0
SMALL
GAST_HUCK


@<TRIPOS>ATOM
      1 Cl1        -5.2774   21.3933  -14.6945 Cl        1 BENZYL     -0.0695 
      2 Cl2        -0.0708   20.9712  -16.2595 Cl        1 BENZYL     -0.0695 
      3 C2         -4.0887   21.0406  -15.9318 C.ar      1 BENZYL      0.0467 
      4 C3         -4.5033   20.6638  -17.2122 C.ar      1 BENZYL     -0.0265 
      5 C4         -3.5599   20.3807  -18.2063 C.ar      1 BENZYL      0.0629 
      6 C5         -2.1963   20.4760  -17.9056 C.ar      1 BENZYL     -0.0265 
      7 C6         -1.7797   20.8531  -16.6259 C.ar      1 BENZYL      0.0467 
      8 C7         -2.7262   21.1363  -15.6381 C.ar      1 BENZYL     -0.0294 
      9 C9         -4.0113   19.9754  -19.5936 C.2       1 BENZYL      0.2608 
     10 O10        -3.1820   19.7276  -20.4550 O.2       1 BENZYL     -0.3570 
     11 O11        -5.3134   19.8902  -19.8724 O.3       1 BENZYL     -0.2934 
     12 H1         -5.5643   20.5932  -17.4273 H         1 BENZYL      0.0679 
     13 H2         -1.4522   20.2577  -18.6644 H         1 BENZYL      0.0679 
     14 H3         -2.4034   21.4297  -14.6450 H         1 BENZYL      0.0666 
     15 H4         -5.4621   19.6278  -20.7744 H         1 BENZYL      0.2523 
@<TRIPOS>BOND
     1    3    1 1    
     2    3    4 ar   
     3    3    8 ar   
     4    8    7 ar   
     5    7    6 ar   
     6    5    6 ar   
     7    4    5 ar   
     8    7    2 1    
     9    5    9 1    
    10    9   10 2    
    11    9   11 1    
    12    4   12 1    
    13    6   13 1    
    14    8   14 1    
    15   11   15 1    
@<TRIPOS>SUBSTRUCTURE
     1 BENZYL      3 PERM              0 ****  ****    0 ROOT 
@<TRIPOS>NORMAL
@<TRIPOS>FF_PBC
FORCE_FIELD_SETUP_FEATURE Force Field Setup information
v1.0  0 0.000000 0.000000 0.000000 0.000000 0.000000 0.000000 NONE 0 0 0 0 1 0 0 0 0 0 0 0 0
