#	Name:			PISM00874.1
#	Creating user name:	baoopengkun
#	Creation time:		Thu Dec 13 23:15:37 2018

#	Modifying user name:	baoopengkun
#	Modification time:	Thu Dec 13 23:57:57 2018

@<TRIPOS>MOLECULE
PISM00874.1
   24    25     1     1     0
SMALL
GAST_HUCK


@<TRIPOS>ATOM
      1 H2          1.7216    0.0492    1.5876 H         1 <1>         0.0557 
      2 C2          3.2905   -1.4045    1.8709 C.ar      1 <1>        -0.0583 
      3 C3          4.6022   -1.7666    1.5506 C.ar      1 <1>         0.0041 
      4 C4          5.3591   -0.9620    0.6940 C.ar      1 <1>        -0.0514 
      5 C5          4.8029    0.1995    0.1504 C.ar      1 <1>         0.0438 
      6 C6          3.4877    0.5564    0.4641 C.ar      1 <1>         0.1113 
      7 C7          2.7357   -0.2400    1.3321 C.ar      1 <1>        -0.0270 
      8 Br8         5.8071    1.2628   -0.9878 Br        1 <1>        -0.0572 
      9 O9          2.9280    1.7071   -0.0889 O.3       1 <1>        -0.2665 
     10 C10         2.0532    1.4677   -1.2010 C.3       1 <1>         0.2371 
     11 O11         1.6466    2.7518   -1.7133 O.3       1 <1>        -0.2311 
     12 C12         2.1801    2.8305   -2.9261 C.2       1 <1>         0.2495 
     13 C13         2.9092    1.6476   -3.3691 C.2       1 <1>         0.0292 
     14 C14         2.8110    0.8162   -2.3343 C.2       1 <1>        -0.0017 
     15 C15         3.5965    1.4135   -4.6862 C.3       1 <1>        -0.0323 
     16 O16         2.0556    3.8232   -3.6225 O.2       1 <1>        -0.3691 
     17 H1          2.7034   -2.0272    2.5386 H         1 <1>         0.0639 
     18 Br18        5.3373   -3.3113    2.2614 Br        1 <1>        -0.0592 
     19 H3          6.3793   -1.2395    0.4506 H         1 <1>         0.0643 
     20 H4          1.1643    0.8835   -0.9118 H         1 <1>         0.1202 
     21 H5          3.2285   -0.1896   -2.3072 H         1 <1>         0.0705 
     22 H6          3.3057    0.4341   -5.0944 H         1 <1>         0.0347 
     23 H7          4.6864    1.4340   -4.5378 H         1 <1>         0.0347 
     24 H8          3.3183    2.1973   -5.4066 H         1 <1>         0.0347 
@<TRIPOS>BOND
     1    7    1 1    
     2    3    2 ar   
     3    4    3 ar   
     4    5    4 ar   
     5    6    5 ar   
     6    6    7 ar   
     7    2    7 ar   
     8    5    8 1    
     9    6    9 1    
    10    9   10 1    
    11   10   11 1    
    12   11   12 1    
    13   12   13 1    
    14   13   14 2    
    15   10   14 1    
    16   13   15 1    
    17   12   16 2    
    18    2   17 1    
    19    3   18 1    
    20    4   19 1    
    21   10   20 1    
    22   14   21 1    
    23   15   22 1    
    24   15   23 1    
    25   15   24 1    
@<TRIPOS>SUBSTRUCTURE
     1 ****        2 TEMP              0 ****  ****    0 ROOT 
@<TRIPOS>NORMAL
@<TRIPOS>FF_PBC
FORCE_FIELD_SETUP_FEATURE Force Field Setup information
v1.0  0 0.000000 0.000000 0.000000 0.000000 0.000000 0.000000 NONE 0 0 0 0 1 0 0 0 0 0 0 0 0
