#	Name:			PISM01198
#	Creating user name:	14062
#	Creation time:		Sun Apr 07 00:05:10 2019

#	Modifying user name:	14062
#	Modification time:	Sun Apr 07 00:14:46 2019

@<TRIPOS>MOLECULE
PISM01198
   81    85     1     1     0
SMALL
GAST_HUCK


@<TRIPOS>ATOM
      1 C1        -11.8912    6.6932   -5.2856 C.3       1 <1>        -0.0310 
      2 C2        -13.3003    6.3432   -5.8635 C.3       1 <1>        -0.0397 
      3 C3        -13.1073    5.4678   -7.1300 C.3       1 <1>        -0.0504 
      4 C4        -12.3004    6.2420   -8.1972 C.3       1 <1>        -0.0378 
      5 C5        -10.8985    6.7286   -7.7139 C.3       1 <1>         0.0718 
      6 C6        -11.0204    7.4690   -6.3480 C.3       1 <1>        -0.0004 
      7 C7         -9.9057    5.5481   -7.5058 C.3       1 <1>        -0.0504 
      8 C8         -8.4900    6.1285   -7.2458 C.3       1 <1>        -0.0926 
      9 C9         -8.3740    7.1556   -6.0484 C.3       1 <1>        -0.0645 
     10 H1        -11.4526    5.7246   -5.0227 H         1 <1>         0.0322 
     11 C11       -11.9997    7.4614   -3.9346 C.3       1 <1>        -0.0604 
     12 H3        -13.8226    7.2731   -6.1473 H         1 <1>         0.0302 
     13 C13       -14.2248    5.5845   -4.8651 C.3       1 <1>        -0.0620 
     14 H5        -14.0888    5.2104   -7.5633 H         1 <1>         0.0267 
     15 H6        -12.6016    4.5234   -6.8740 H         1 <1>         0.0267 
     16 H7        -12.9003    7.1191   -8.4953 H         1 <1>         0.0258 
     17 H8        -12.1967    5.5957   -9.0853 H         1 <1>         0.0258 
     18 C18       -10.4136    7.5648   -8.9048 C.2       1 <1>         0.2613 
     19 C19        -9.6629    7.9577   -5.8200 C.2       1 <1>        -0.0640 
     20 H10       -11.6561    8.3456   -6.5504 H         1 <1>         0.0432 
     21 H11        -9.8857    4.9226   -8.4154 H         1 <1>         0.0245 
     22 H12       -10.1877    4.8746   -6.6888 H         1 <1>         0.0245 
     23 H13        -8.2619    6.5490   -8.2263 H         1 <1>         0.0102 
     24 H14        -7.7765    5.2983   -7.1219 H         1 <1>         0.0102 
     25 C25        -8.3489    6.2490   -4.7632 C.3       1 <1>        -0.1042 
     26 C26        -7.0639    8.1058   -6.1626 C.3       1 <1>        -0.0634 
     27 C27        -9.6235    9.0879   -5.1046 C.2       1 <1>        -0.0128 
     28 C28        -8.3640    9.5995   -4.4635 C.3       1 <1>         0.0237 
     29 C29        -5.8214    7.3330   -5.6170 C.3       1 <1>        -0.0591 
     30 C30        -6.7598    8.4155   -7.6757 C.3       1 <1>        -0.0714 
     31 C31        -4.5143    8.1609   -5.5792 C.3       1 <1>        -0.0498 
     32 H19       -10.5367    9.6662   -4.9486 H         1 <1>         0.1467 
     33 H20        -8.6030   10.6488   -4.2133 H         1 <1>         0.0680 
     34 C34        -7.1561    9.5239   -5.4362 C.3       1 <1>        -0.0169 
     35 H22        -8.1721    9.0558   -3.5290 H         1 <1>         0.0680 
     36 C36        -5.8169   10.2993   -4.9650 C.3       1 <1>        -0.0220 
     37 H16        -5.6582    6.4217   -6.2156 H         1 <1>         0.0258 
     38 H18        -5.9626    7.0168   -4.5758 H         1 <1>         0.0258 
     39 H21        -3.7250    7.4589   -5.2722 H         1 <1>         0.0268 
     40 C40        -4.6559    9.3238   -4.5530 C.3       1 <1>        -0.0276 
     41 H24        -4.2363    8.5179   -6.5785 H         1 <1>         0.0268 
     42 H25        -7.6126   10.1666   -6.2066 H         1 <1>         0.0353 
     43 C43        -6.0410   11.2217   -3.6978 C.3       1 <1>        -0.0444 
     44 C44        -5.3493   11.2665   -6.1161 C.3       1 <1>        -0.0587 
     45 C45        -3.2608    9.9542   -4.1227 C.3       1 <1>        -0.0056 
     46 H28        -5.0495    8.8596   -3.6346 H         1 <1>         0.0312 
     47 C47        -3.4382   11.3275   -3.3720 C.3       1 <1>         0.0606 
     48 C48        -4.8350   11.4004   -2.7164 C.3       1 <1>        -0.0258 
     49 H23        -6.7789   10.8220   -2.9932 H         1 <1>         0.0272 
     50 H26        -6.4215   12.2058   -4.0180 H         1 <1>         0.0272 
     51 C51        -2.2532   10.1184   -5.3063 C.3       1 <1>        -0.0572 
     52 C52        -2.5540    8.9743   -3.1160 C.3       1 <1>        -0.0572 
     53 O53        -3.2233   12.5432   -4.1151 O.3       1 <1>        -0.3912 
     54 H32        -2.7061   11.4115   -2.5463 H         1 <1>         0.0599 
     55 H33        -4.9350   12.3657   -2.1906 H         1 <1>         0.0290 
     56 H34        -4.8467   10.6176   -1.9356 H         1 <1>         0.0290 
     57 O57       -10.2772    7.0343   -9.9950 O.2       1 <1>        -0.3120 
     58 O58       -10.1298    8.8712   -8.8351 O.3       1 <1>        -0.2929 
     59 H2        -12.5384    6.8792   -3.1740 H         1 <1>         0.0234 
     60 H4        -12.5252    8.4175   -4.0769 H         1 <1>         0.0234 
     61 H9        -11.0061    7.6502   -3.5047 H         1 <1>         0.0234 
     62 H15       -14.5656    6.2384   -4.0490 H         1 <1>         0.0233 
     63 H17       -13.7021    4.7161   -4.4358 H         1 <1>         0.0233 
     64 H27       -15.1305    5.2225   -5.3759 H         1 <1>         0.0233 
     65 H29        -9.2769    5.6914   -4.6265 H         1 <1>         0.0068 
     66 H30        -8.2015    6.8178   -3.8380 H         1 <1>         0.0068 
     67 H31        -7.5743    5.4691   -4.8045 H         1 <1>         0.0068 
     68 H35        -6.0538    9.2268   -7.8345 H         1 <1>         0.0223 
     69 H36        -7.6730    8.7404   -8.1925 H         1 <1>         0.0223 
     70 H37        -6.3134    7.5634   -8.2104 H         1 <1>         0.0223 
     71 H38        -6.1864   11.8327   -6.5508 H         1 <1>         0.0235 
     72 H39        -4.8211   10.7709   -6.9334 H         1 <1>         0.0235 
     73 H40        -4.6695   12.0399   -5.7651 H         1 <1>         0.0235 
     74 H41        -2.0083    9.1532   -5.7715 H         1 <1>         0.0236 
     75 H42        -1.3039   10.5398   -4.9419 H         1 <1>         0.0236 
     76 H43        -2.6273   10.7832   -6.0924 H         1 <1>         0.0236 
     77 H44        -3.1540    8.8296   -2.2049 H         1 <1>         0.0236 
     78 H45        -1.5737    9.3656   -2.8009 H         1 <1>         0.0236 
     79 H46        -2.3627    7.9825   -3.5458 H         1 <1>         0.0236 
     80 H47        -2.3393   12.6642   -4.4463 H         1 <1>         0.2098 
     81 H48       -10.1799    9.2849   -7.9882 H         1 <1>         0.2527 
@<TRIPOS>BOND
     1    2    1 1    
     2    2    3 1    
     3    3    4 1    
     4    4    5 1    
     5    5    6 1    
     6    1    6 1    
     7    5    7 1    
     8    7    8 1    
     9   19    9 1    
    10    8    9 1    
    11    1   10 1    
    12    1   11 1    
    13    2   12 1    
    14    2   13 1    
    15    3   14 1    
    16    3   15 1    
    17    4   16 1    
    18    4   17 1    
    19    6   19 1    
    20    5   18 1    
    21    6   20 1    
    22    7   21 1    
    23    7   22 1    
    24    8   23 1    
    25    8   24 1    
    26    9   25 1    
    27    9   26 1    
    28   19   27 2    
    29   27   28 1    
    30   26   34 1    
    31   26   30 1    
    32   26   29 1    
    33   27   32 1    
    34   28   33 1    
    35   28   34 1    
    36   28   35 1    
    37   29   31 1    
    38   34   36 1    
    39   29   37 1    
    40   29   38 1    
    41   31   39 1    
    42   31   40 1    
    43   31   41 1    
    44   34   42 1    
    45   36   43 1    
    46   36   44 1    
    47   40   45 1    
    48   36   40 1    
    49   40   46 1    
    50   45   47 1    
    51   47   48 1    
    52   43   48 1    
    53   43   49 1    
    54   43   50 1    
    55   45   51 1    
    56   45   52 1    
    57   47   53 1    
    58   47   54 1    
    59   48   55 1    
    60   48   56 1    
    61   18   57 2    
    62   18   58 1    
    63   11   59 1    
    64   11   60 1    
    65   11   61 1    
    66   13   62 1    
    67   13   63 1    
    68   13   64 1    
    69   25   65 1    
    70   25   66 1    
    71   25   67 1    
    72   30   68 1    
    73   30   69 1    
    74   30   70 1    
    75   44   71 1    
    76   44   72 1    
    77   44   73 1    
    78   51   74 1    
    79   51   75 1    
    80   51   76 1    
    81   52   77 1    
    82   52   78 1    
    83   52   79 1    
    84   53   80 1    
    85   58   81 1    
@<TRIPOS>SUBSTRUCTURE
     1 ****        2 TEMP              0 ****  ****    0 ROOT 
@<TRIPOS>NORMAL
@<TRIPOS>FF_PBC
FORCE_FIELD_SETUP_FEATURE Force Field Setup information
v1.0  0 0.000000 0.000000 0.000000 0.000000 0.000000 0.000000 NONE 0 0 0 0 1 0 0 0 0 0 0 0 0
