#	Name:			PISM00277
#	Creating user name:	baoopengkun
#	Creation time:		Sun Mar 31 17:37:08 2019

#	Modifying user name:	baoopengkun
#	Modification time:	Sun Mar 31 18:20:24 2019

@<TRIPOS>MOLECULE
PISM00277
   54    55     1     1     0
SMALL
GAST_HUCK


@<TRIPOS>ATOM
      1 C1         -4.8377    2.3626   -4.1173 C.ar      1 <1>        -0.0795 
      2 C2         -3.4883    2.6678   -4.3179 C.ar      1 <1>        -0.0432 
      3 C3         -2.6495    1.7667   -4.9873 C.ar      1 <1>         0.1176 
      4 C4         -3.1790    0.5443   -5.4196 C.ar      1 <1>         0.1167 
      5 C5         -4.5286    0.2439   -5.2190 C.ar      1 <1>        -0.0403 
      6 C6         -5.3772    1.1619   -4.5900 C.ar      1 <1>        -0.0595 
      7 O7         -1.2955    2.0502   -5.2356 O.3       1 <1>        -0.3259 
      8 C8         -0.6976    3.3046   -4.8739 C.3       1 <1>         0.0567 
      9 O9         -2.3632   -0.3958   -6.0552 O.3       1 <1>        -0.3256 
     10 C10        -1.5104   -1.1237   -5.1552 C.3       1 <1>         0.0568 
     11 C11        -6.8558    0.8987   -4.3981 C.2       1 <1>        -0.0763 
     12 C12        -7.5824    0.1421   -5.2315 C.2       1 <1>        -0.0658 
     13 C13        -9.0552   -0.1161   -5.0285 C.3       1 <1>         0.0303 
     14 N14        -9.8397    0.6469   -6.0337 N.3       1 <1>        -0.2773 
     15 C15        -9.7414    2.1241   -5.8555 C.3       1 <1>         0.0216 
     16 C16       -10.9101    4.3332   -6.1550 C.2       1 <1>         0.2347 
     17 O17       -11.1440    5.0662   -7.1031 O.2       1 <1>        -0.3704 
     18 O18       -10.5065    4.7884   -4.9611 O.3       1 <1>        -0.2801 
     19 C19       -10.3480    6.2202   -4.9174 C.3       1 <1>         0.0658 
     20 C20        -9.6784    0.1888   -7.4427 C.3       1 <1>         0.0335 
     21 C21        -9.6378   -1.3393   -7.5913 C.ar      1 <1>        -0.0326 
     22 C22        -8.5060   -1.9910   -8.0976 C.ar      1 <1>        -0.0608 
     23 C23        -8.4761   -3.3857   -8.1844 C.ar      1 <1>        -0.0349 
     24 C24        -9.5844   -4.1353   -7.7860 C.ar      1 <1>         0.1248 
     25 C25       -10.7258   -3.4896   -7.3047 C.ar      1 <1>        -0.0349 
     26 C26       -10.7517   -2.0951   -7.2091 C.ar      1 <1>        -0.0608 
     27 F27        -9.5541   -5.4637   -7.8652 F         1 <1>        -0.1893 
     28 C28       -11.0556    2.8381   -6.2646 C.3       1 <1>         0.0618 
     29 H1         -5.4723    3.0701   -3.5909 H         1 <1>         0.0472 
     30 H2         -3.1185    3.6137   -3.9428 H         1 <1>         0.0508 
     31 H3         -4.8958   -0.7202   -5.5526 H         1 <1>         0.0473 
     32 H4          0.3526    3.2775   -5.1974 H         1 <1>         0.0573 
     33 H5         -0.7185    3.4542   -3.7838 H         1 <1>         0.0573 
     34 H6         -1.1955    4.1432   -5.3844 H         1 <1>         0.0573 
     35 H7         -0.9463   -1.8671   -5.7377 H         1 <1>         0.0573 
     36 H8         -2.1079   -1.6535   -4.3965 H         1 <1>         0.0573 
     37 H9         -0.7963   -0.4536   -4.6511 H         1 <1>         0.0573 
     38 H10        -7.3378    1.3682   -3.5404 H         1 <1>         0.0412 
     39 H11        -7.1235   -0.3077   -6.1092 H         1 <1>         0.0691 
     40 H12        -9.3807    0.1737   -4.0170 H         1 <1>         0.0617 
     41 H13        -9.2405   -1.1989   -5.0937 H         1 <1>         0.0617 
     42 H14        -8.8975    2.5349   -6.4341 H         1 <1>         0.0456 
     43 H15        -9.5613    2.3834   -4.7986 H         1 <1>         0.0456 
     44 H16       -10.0048    6.4929   -3.9089 H         1 <1>         0.0577 
     45 H17       -11.3035    6.7330   -5.1124 H         1 <1>         0.0577 
     46 H18        -9.5941    6.5613   -5.6453 H         1 <1>         0.0577 
     47 H19        -8.7732    0.6307   -7.8872 H         1 <1>         0.0584 
     48 H20       -10.5359    0.5193   -8.0451 H         1 <1>         0.0584 
     49 H21        -7.6417   -1.4228   -8.4253 H         1 <1>         0.0548 
     50 H22        -7.5938   -3.8917   -8.5612 H         1 <1>         0.0587 
     51 H23       -11.5881   -4.0756   -7.0054 H         1 <1>         0.0587 
     52 H24       -11.6398   -1.5968   -6.8326 H         1 <1>         0.0548 
     53 H25       -11.8778    2.5073   -5.6116 H         1 <1>         0.0531 
     54 H26       -11.3226    2.6017   -7.3037 H         1 <1>         0.0531 
@<TRIPOS>BOND
     1    1    2 ar   
     2    2    3 ar   
     3    4    3 ar   
     4    5    4 ar   
     5    6    5 ar   
     6    6    1 ar   
     7    3    7 1    
     8    7    8 1    
     9    4    9 1    
    10    9   10 1    
    11   11    6 1    
    12   12   11 2    
    13   13   12 1    
    14   14   13 1    
    15   15   14 1    
    16   28   15 1    
    17   16   17 2    
    18   16   18 1    
    19   18   19 1    
    20   14   20 1    
    21   20   21 1    
    22   21   22 ar   
    23   22   23 ar   
    24   23   24 ar   
    25   25   24 ar   
    26   26   25 ar   
    27   21   26 ar   
    28   24   27 1    
    29   16   28 1    
    30    1   29 1    
    31    2   30 1    
    32    5   31 1    
    33    8   32 1    
    34    8   33 1    
    35    8   34 1    
    36   10   35 1    
    37   10   36 1    
    38   10   37 1    
    39   11   38 1    
    40   12   39 1    
    41   13   40 1    
    42   13   41 1    
    43   15   42 1    
    44   15   43 1    
    45   19   44 1    
    46   19   45 1    
    47   19   46 1    
    48   20   47 1    
    49   20   48 1    
    50   22   49 1    
    51   23   50 1    
    52   25   51 1    
    53   26   52 1    
    54   28   53 1    
    55   28   54 1    
@<TRIPOS>SUBSTRUCTURE
     1 ****       16 TEMP              0 ****  ****    0 ROOT 
@<TRIPOS>NORMAL
@<TRIPOS>FF_PBC
FORCE_FIELD_SETUP_FEATURE Force Field Setup information
v1.0  0 0.000000 0.000000 0.000000 0.000000 0.000000 0.000000 NONE 0 0 0 0 1 0 0 0 0 0 0 0 0
