#	Name:			PISM00536
#	Creating user name:	malab
#	Creation time:		Thu Apr 04 21:45:47 2019

#	Modifying user name:	malab
#	Modification time:	Thu Apr 04 21:48:35 2019

@<TRIPOS>MOLECULE
PISM00536
   15    15     1     1     0
SMALL
GAST_HUCK


@<TRIPOS>ATOM
      1 O1         22.0626    8.3710   -8.5139 O.2       1 <1>        -0.3570 
      2 C2         22.7527    8.6186   -9.4877 C.2       1 <1>         0.2608 
      3 O3         22.2700    8.2532  -10.6783 O.3       1 <1>        -0.2934 
      4 C4         24.0810    9.3214   -9.2759 C.ar      1 <1>         0.0629 
      5 C5         24.2490   10.1099   -8.1311 C.ar      1 <1>        -0.0265 
      6 C6         25.4412   10.8050   -7.9108 C.ar      1 <1>         0.0467 
      7 C7         26.4826   10.7148   -8.8368 C.ar      1 <1>        -0.0294 
      8 C8         26.3333    9.9132   -9.9707 C.ar      1 <1>         0.0467 
      9 C9         25.1464    9.2044  -10.1784 C.ar      1 <1>        -0.0265 
     10 H10        27.4040   11.2640   -8.6753 H         1 <1>         0.0666 
     11 H1         22.7849    8.5449  -11.4174 H         1 <1>         0.2523 
     12 H2         23.4489   10.1914   -7.4025 H         1 <1>         0.0679 
     13 Cl13       25.6297   11.7906   -6.4750 Cl        1 <1>        -0.0695 
     14 Cl14       27.6383    9.7939  -11.1332 Cl        1 <1>        -0.0695 
     15 H5         25.0774    8.5578  -11.0452 H         1 <1>         0.0679 
@<TRIPOS>BOND
     1    2    1 2    
     2    2    3 1    
     3    2    4 1    
     4    4    5 ar   
     5    5    6 ar   
     6    6    7 ar   
     7    7    8 ar   
     8    8    9 ar   
     9    4    9 ar   
    10    7   10 1    
    11    3   11 1    
    12    5   12 1    
    13    6   13 1    
    14    8   14 1    
    15    9   15 1    
@<TRIPOS>SUBSTRUCTURE
     1 ****        2 TEMP              0 ****  ****    0 ROOT 
@<TRIPOS>NORMAL
@<TRIPOS>FF_PBC
FORCE_FIELD_SETUP_FEATURE Force Field Setup information
v1.0  0 0.000000 0.000000 0.000000 0.000000 0.000000 0.000000 NONE 0 0 0 0 1 0 0 0 0 0 0 0 0
