#	Name:			PISM00015
#	Creating user name:	baoopengkun
#	Creation time:		Sat Nov 17 16:10:07 2018

#	Modifying user name:	baoopengkun
#	Modification time:	Sat Nov 17 16:14:54 2018

@<TRIPOS>MOLECULE
PISM00015
   37    37     1     2     0
SMALL
GAST_HUCK


@<TRIPOS>ATOM
      1 C1         -2.3362   -6.6389    2.0667 C.ar      1 <1>        -0.0809 
      2 C2         -3.3992   -7.4085    2.5511 C.ar      1 <1>        -0.0675 
      3 C3         -4.5863   -6.7755    2.9356 C.ar      1 <1>        -0.0434 
      4 C4         -4.7304   -5.3888    2.8151 C.ar      1 <1>         0.1471 
      5 C5         -3.6966   -4.6425    2.2378 C.ar      1 <1>         0.1639 
      6 C6         -2.4855   -5.2584    1.9123 C.ar      1 <1>        -0.0421 
      7 C7         -3.2791   -8.9328    2.6688 C.3       1 <1>        -0.0385 
      8 N8         -5.8606   -4.7818    3.2530 N.pl3     1 <1>         0.0289 
      9 O9         -5.8375   -3.6306    3.6309 O.2       1 <1>        -0.1287 
     10 O10        -7.0763   -5.4793    3.2873 O.3       1 <1>        -0.2413 
     11 O11        -3.8733   -3.2859    1.9692 O.3       1 <1>        -0.1717 
     12 P12        -4.5709   -2.9988    0.5509 P.3       1 <1>         0.2618 
     13 N13        -4.5313   -1.5092    0.3176 N.3       1 <1>        -0.1880 
     14 O14        -3.7704   -3.7854   -0.5974 O.3       1 <1>        -0.2189 
     15 C15        -3.9855   -5.1050   -1.1226 C.3       1 <1>         0.0897 
     16 S16        -5.5733   -3.3073    0.5392 S.2       1 <1>        -0.4354 
     17 C17        -3.3177   -1.0149   -0.3800 C.3       1 <1>         0.0276 
     18 C18        -2.0205   -1.2382    0.4458 C.3       1 <1>        -0.0478 
     19 C19        -3.5130    0.4975   -0.6707 C.3       1 <1>        -0.0478 
     20 H1         -1.3921   -7.1070    1.8065 H         1 <1>         0.0418 
     21 H2         -5.4003   -7.3689    3.3381 H         1 <1>         0.0422 
     22 H3         -1.6635   -4.6621    1.5321 H         1 <1>         0.0507 
     23 H4         -2.4233   -9.3183    2.0944 H         1 <1>         0.0371 
     24 H5         -4.1945   -9.4117    2.2892 H         1 <1>         0.0371 
     25 H6         -3.1466   -9.1997    3.7278 H         1 <1>         0.0371 
     26 H7         -7.6667   -5.1097    2.6394 H         1 <1>         0.2519 
     27 H8         -4.6774   -0.9744    1.2509 H         1 <1>         0.1542 
     28 H9         -3.2017   -5.3212   -1.8626 H         1 <1>         0.0620 
     29 H10        -4.9677   -5.1541   -1.6163 H         1 <1>         0.0620 
     30 H11        -3.9465   -5.8599   -0.3247 H         1 <1>         0.0620 
     31 H12        -3.2161   -1.5109   -1.3621 H         1 <1>         0.0477 
     32 H13        -1.1598   -0.7761   -0.0617 H         1 <1>         0.0245 
     33 H14        -1.8080   -2.3104    0.5608 H         1 <1>         0.0245 
     34 H15        -2.1220   -0.7902    1.4458 H         1 <1>         0.0245 
     35 H16        -2.6746    0.8940   -1.2646 H         1 <1>         0.0245 
     36 H17        -3.5772    1.0676    0.2687 H         1 <1>         0.0245 
     37 H18        -4.4456    0.6493   -1.2365 H         1 <1>         0.0245 
@<TRIPOS>BOND
     1    2    1 ar   
     2    2    3 ar   
     3    3    4 ar   
     4    4    5 ar   
     5    5    6 ar   
     6    1    6 ar   
     7    2    7 1    
     8    4    8 1    
     9    8    9 2    
    10    8   10 1    
    11    5   11 1    
    12   11   12 1    
    13   12   13 1    
    14   12   14 1    
    15   14   15 1    
    16   12   16 2    
    17   13   17 1    
    18   17   18 1    
    19   17   19 1    
    20    1   20 1    
    21    3   21 1    
    22    6   22 1    
    23    7   23 1    
    24    7   24 1    
    25    7   25 1    
    26   10   26 1    
    27   13   27 1    
    28   15   28 1    
    29   15   29 1    
    30   15   30 1    
    31   17   31 1    
    32   18   32 1    
    33   18   33 1    
    34   18   34 1    
    35   19   35 1    
    36   19   36 1    
    37   19   37 1    
@<TRIPOS>SUBSTRUCTURE
     1 ****        2 TEMP              0 ****  ****    0 ROOT 
@<TRIPOS>NORMAL
@<TRIPOS>FF_PBC
FORCE_FIELD_SETUP_FEATURE Force Field Setup information
v1.0  0 0.000000 0.000000 0.000000 0.000000 0.000000 0.000000 NONE 0 0 0 0 1 0 0 0 0 0 0 0 0
@<TRIPOS>RENDERING_ATTRS
ANTIALIASED_LINES 
*
