#	Name:			PISM00265
#	Creating user name:	14062
#	Creation time:		Sat Apr 06 00:48:13 2019

#	Modifying user name:	14062
#	Modification time:	Sat Apr 06 00:49:53 2019

@<TRIPOS>MOLECULE
PISM00265
   25    26     1     1     0
SMALL
GAST_HUCK


@<TRIPOS>ATOM
      1 C1         -0.3765    0.8843    0.1932 C.3       1 BENZYL      0.0395 
      2 N2          0.8373    0.1257    0.4924 N.pl3     1 BENZYL     -0.2779 
      3 C2          1.7573   -0.1780   -0.4674 C.ar      1 BENZYL      0.0432 
      4 C3          1.4199   -0.1454   -1.8290 C.ar      1 BENZYL     -0.0442 
      5 C4          2.3670   -0.4264   -2.8185 C.ar      1 BENZYL     -0.0737 
      6 C5          3.6714   -0.7742   -2.4627 C.ar      1 BENZYL     -0.0751 
      7 C6          4.0190   -0.8334   -1.1124 C.ar      1 BENZYL     -0.0737 
      8 C7          3.0715   -0.5351   -0.1284 C.ar      1 BENZYL     -0.0442 
      9 C9          0.9939   -0.3032    1.8832 C.3       1 BENZYL      0.1857 
     10 S10        -0.6496   -0.0715    2.6205 S.3       1 BENZYL     -0.1090 
     11 C11        -0.9570    1.3542    1.5471 C.3       1 BENZYL      0.0180 
     12 C12         1.9447    0.5598    2.6762 C.2       1 BENZYL      0.2672 
     13 O13         2.4582    0.1616    3.7102 O.2       1 BENZYL     -0.3671 
     14 O14         2.1974    1.7747    2.1862 O.3       1 BENZYL     -0.2903 
     15 H1         -1.1057    0.2133   -0.2901 H         1 BENZYL      0.0524 
     16 H2         -0.1858    1.7562   -0.4542 H         1 BENZYL      0.0524 
     17 H3          0.4142    0.0927   -2.1530 H         1 BENZYL      0.0515 
     18 H4          2.0894   -0.3764   -3.8672 H         1 BENZYL      0.0583 
     19 H5          4.4079   -0.9970   -3.2287 H         1 BENZYL      0.0505 
     20 H6          5.0296   -1.1109   -0.8272 H         1 BENZYL      0.0583 
     21 H7          3.3941   -0.5871    0.9034 H         1 BENZYL      0.0515 
     22 H8          1.2684   -1.3659    1.9663 H         1 BENZYL      0.0931 
     23 H9         -0.3993    2.2192    1.9389 H         1 BENZYL      0.0398 
     24 H10        -2.0285    1.6024    1.4935 H         1 BENZYL      0.0398 
     25 H11         2.8092    2.2462    2.7401 H         1 BENZYL      0.2540 
@<TRIPOS>BOND
     1    2    3 1    
     2    3    4 ar   
     3    3    8 ar   
     4    8    7 ar   
     5    7    6 ar   
     6    6    5 ar   
     7    5    4 ar   
     8    2    1 1    
     9    2    9 1    
    10    9   10 1    
    11   10   11 1    
    12    1   11 1    
    13    9   12 1    
    14   12   13 2    
    15   12   14 1    
    16    1   15 1    
    17    1   16 1    
    18    4   17 1    
    19    5   18 1    
    20    6   19 1    
    21    7   20 1    
    22    8   21 1    
    23    9   22 1    
    24   11   23 1    
    25   11   24 1    
    26   14   25 1    
@<TRIPOS>SUBSTRUCTURE
     1 BENZYL      2 PERM              0 ****  ****    0 ROOT 
@<TRIPOS>NORMAL
@<TRIPOS>FF_PBC
FORCE_FIELD_SETUP_FEATURE Force Field Setup information
v1.0  0 0.000000 0.000000 0.000000 0.000000 0.000000 0.000000 NONE 0 0 0 0 1 0 0 0 0 0 0 0 0
