#	Name:			PISM00847.1
#	Creating user name:	baoopengkun
#	Creation time:		Thu Dec 13 14:40:19 2018

#	Modifying user name:	baoopengkun
#	Modification time:	Thu Dec 13 15:06:07 2018

@<TRIPOS>MOLECULE
PISM00847.1
   36    38     1     1     0
SMALL
GAST_HUCK


@<TRIPOS>ATOM
      1 C1         -9.3624   16.8426   10.5036 C.ar      1 <1>        -0.0411 
      2 C2         -8.1269   16.2269   10.2838 C.ar      1 <1>        -0.0411 
      3 C3         -7.0616   16.9665    9.7630 C.ar      1 <1>         0.0865 
      4 C4         -7.2299   18.3214    9.4652 C.ar      1 <1>        -0.0411 
      5 C5         -8.4658   18.9371    9.6847 C.ar      1 <1>        -0.0411 
      6 C6         -9.5283   18.1997   10.2152 C.ar      1 <1>         0.0865 
      7 O7         -5.8311   16.3533    9.5406 O.3       1 <1>        -0.2784 
      8 O8        -10.7554   18.8131   10.4588 O.3       1 <1>        -0.2784 
      9 C9        -10.7821   19.6218   11.6436 C.3       1 <1>         0.2335 
     10 C10       -10.5364   18.7727   12.8691 C.2       1 <1>        -0.0023 
     11 C11       -11.6166   18.7505   13.6468 C.2       1 <1>         0.0291 
     12 C12       -12.5645   19.6027   12.9378 C.2       1 <1>         0.2494 
     13 O13       -12.1203   20.1325   11.8048 O.3       1 <1>        -0.2317 
     14 C14       -11.8065   18.0256   14.9511 C.3       1 <1>        -0.0323 
     15 O15       -13.6878   19.8239   13.3564 O.2       1 <1>        -0.3691 
     16 C16        -5.7494   15.7277    8.2539 C.3       1 <1>         0.2335 
     17 C17        -4.4352   14.9914    8.1757 C.2       1 <1>        -0.0023 
     18 C18        -4.6402   13.6815    8.0521 C.2       1 <1>         0.0291 
     19 C19        -6.0940   13.5631    8.0411 C.2       1 <1>         0.2494 
     20 O20        -6.7607   14.7067    8.1304 O.3       1 <1>        -0.2317 
     21 C21        -3.6171   12.5827    7.9574 C.3       1 <1>        -0.0323 
     22 O22        -6.6652   12.4902    7.9491 O.2       1 <1>        -0.3691 
     23 H1        -10.1956   16.2715   10.8995 H         1 <1>         0.0516 
     24 H2         -7.9906   15.1756   10.5156 H         1 <1>         0.0516 
     25 H3         -6.3986   18.8911    9.0633 H         1 <1>         0.0516 
     26 H4         -8.6026   19.9857    9.4424 H         1 <1>         0.0516 
     27 H5        -10.0734   20.4642   11.5866 H         1 <1>         0.1194 
     28 H6         -9.6070   18.2472   13.0852 H         1 <1>         0.0705 
     29 H7        -12.7608   18.3170   15.4150 H         1 <1>         0.0347 
     30 H8        -10.9850   18.2732   15.6398 H         1 <1>         0.0347 
     31 H9        -11.8129   16.9403   14.7714 H         1 <1>         0.0347 
     32 H10        -5.8405   16.4614    7.4357 H         1 <1>         0.1194 
     33 H11        -3.4578   15.4697    8.2222 H         1 <1>         0.0705 
     34 H12        -3.2143   12.5446    6.9345 H         1 <1>         0.0347 
     35 H13        -4.0787   11.6130    8.1970 H         1 <1>         0.0347 
     36 H14        -2.7938   12.7689    8.6632 H         1 <1>         0.0347 
@<TRIPOS>BOND
     1    2    1 ar   
     2    2    3 ar   
     3    3    4 ar   
     4    4    5 ar   
     5    5    6 ar   
     6    1    6 ar   
     7    3    7 1    
     8    6    8 1    
     9    8    9 1    
    10    9   10 1    
    11   10   11 2    
    12   11   12 1    
    13   12   13 1    
    14    9   13 1    
    15   11   14 1    
    16   12   15 2    
    17    7   16 1    
    18   16   17 1    
    19   17   18 2    
    20   18   19 1    
    21   19   20 1    
    22   16   20 1    
    23   18   21 1    
    24   19   22 2    
    25    1   23 1    
    26    2   24 1    
    27    4   25 1    
    28    5   26 1    
    29    9   27 1    
    30   10   28 1    
    31   14   29 1    
    32   14   30 1    
    33   14   31 1    
    34   16   32 1    
    35   17   33 1    
    36   21   34 1    
    37   21   35 1    
    38   21   36 1    
@<TRIPOS>SUBSTRUCTURE
     1 ****        2 TEMP              0 ****  ****    0 ROOT 
@<TRIPOS>NORMAL
@<TRIPOS>FF_PBC
FORCE_FIELD_SETUP_FEATURE Force Field Setup information
v1.0  0 0.000000 0.000000 0.000000 0.000000 0.000000 0.000000 NONE 0 0 0 0 1 0 0 0 0 0 0 0 0
