#	Name:			PISM00312
#	Creating user name:	baoopengkun
#	Creation time:		Sun Dec 16 04:12:35 2018

#	Modifying user name:	baoopengkun
#	Modification time:	Sun Dec 16 04:14:18 2018

@<TRIPOS>MOLECULE
PISM00312
   36    37     1     1     0
SMALL
GAST_HUCK


@<TRIPOS>ATOM
      1 C1         -8.8331   15.7000   43.0444 C.3       1 <1>        -0.0326 
      2 C2         -9.0283   16.4519   44.3923 C.3       1 <1>         0.0119 
      3 C3         -7.8121   16.8983   45.1838 C.2       1 <1>         0.0149 
      4 C4         -6.4632   16.7939   44.4878 C.3       1 <1>         0.0119 
      5 C5         -6.3757   17.6710   43.2069 C.3       1 <1>        -0.0326 
      6 C6         -6.8332   16.9297   41.9231 C.3       1 <1>        -0.0494 
      7 C7         -8.3498   16.6142   41.8847 C.3       1 <1>        -0.0494 
      8 C8         -7.9416   17.3555   46.4468 C.2       1 <1>         0.1560 
      9 C9         -6.7709   17.7515   47.1879 C.1       1 <1>         0.0564 
     10 N10        -5.8329   18.0641   47.7888 N.1       1 <1>        -0.3797 
     11 C11        -9.2280   17.4983   47.1800 C.2       1 <1>         0.2224 
     12 O12       -10.2313   17.6604   46.5066 O.2       1 <1>        -0.3882 
     13 N13        -9.2668   17.4537   48.4900 N.pl3     1 <1>        -0.2293 
     14 C14       -10.4177   17.5930   49.1991 C.ar      1 <1>         0.1334 
     15 C15       -10.4260   17.3741   50.5834 C.ar      1 <1>        -0.0117 
     16 C16       -11.6090   17.5278   51.3114 C.ar      1 <1>        -0.0528 
     17 C17       -12.7787   17.8990   50.6453 C.ar      1 <1>        -0.0468 
     18 C18       -12.7300   18.1051   49.2649 C.ar      1 <1>        -0.0025 
     19 N19       -11.5712   17.9473   48.5932 N.ar      1 <1>        -0.2812 
     20 H1         -9.8262   15.3164   42.7478 H         1 <1>         0.0306 
     21 H2         -8.1747   14.8253   43.1621 H         1 <1>         0.0306 
     22 H3         -9.6006   15.7703   45.0446 H         1 <1>         0.0587 
     23 H4         -9.6518   17.3369   44.1873 H         1 <1>         0.0587 
     24 H5         -6.2422   15.7405   44.2607 H         1 <1>         0.0587 
     25 H6         -5.6441   17.1241   45.1454 H         1 <1>         0.0587 
     26 H7         -5.3201   17.9515   43.0386 H         1 <1>         0.0306 
     27 H8         -6.9475   18.6035   43.3439 H         1 <1>         0.0306 
     28 H9         -6.2584   15.9951   41.8101 H         1 <1>         0.0268 
     29 H10        -6.6003   17.5670   41.0517 H         1 <1>         0.0268 
     30 H11        -8.5467   16.0967   40.9290 H         1 <1>         0.0268 
     31 H12        -8.9268   17.5535   41.8742 H         1 <1>         0.0268 
     32 H13        -8.3912   17.3017   49.0098 H         1 <1>         0.2131 
     33 H14        -9.5190   17.0834   51.1031 H         1 <1>         0.0623 
     34 H15       -11.6199   17.3605   52.3842 H         1 <1>         0.0702 
     35 H16       -13.7093   18.0252   51.1897 H         1 <1>         0.0606 
     36 H17       -13.6235   18.3936   48.7215 H         1 <1>         0.0785 
@<TRIPOS>BOND
     1    2    1 1    
     2    2    3 1    
     3    3    4 1    
     4    4    5 1    
     5    5    6 1    
     6    6    7 1    
     7    1    7 1    
     8    3    8 2    
     9    8    9 1    
    10    9   10 3    
    11    8   11 1    
    12   11   12 2    
    13   11   13 1    
    14   13   14 1    
    15   14   15 ar   
    16   15   16 ar   
    17   16   17 ar   
    18   17   18 ar   
    19   18   19 ar   
    20   14   19 ar   
    21    1   20 1    
    22    1   21 1    
    23    2   22 1    
    24    2   23 1    
    25    4   24 1    
    26    4   25 1    
    27    5   26 1    
    28    5   27 1    
    29    6   28 1    
    30    6   29 1    
    31    7   30 1    
    32    7   31 1    
    33   13   32 1    
    34   15   33 1    
    35   16   34 1    
    36   17   35 1    
    37   18   36 1    
@<TRIPOS>SUBSTRUCTURE
     1 ****        2 TEMP              0 ****  ****    0 ROOT 
@<TRIPOS>NORMAL
@<TRIPOS>FF_PBC
FORCE_FIELD_SETUP_FEATURE Force Field Setup information
v1.0  0 0.000000 0.000000 0.000000 0.000000 0.000000 0.000000 NONE 0 0 0 0 1 0 0 0 0 0 0 0 0
