#	Name:			PISM00522
#	Creating user name:	baoopengkun
#	Creation time:		Sun Jan 20 22:37:21 2019

#	Modifying user name:	baoopengkun
#	Modification time:	Sun Jan 20 22:39:23 2019

@<TRIPOS>MOLECULE
PISM00522
   48    50     1     1     0
SMALL
GAST_HUCK


@<TRIPOS>ATOM
      1 O1         -2.1996   12.2353   15.7455 O.2       1 <1>        -0.3912 
      2 C2         -2.8537   11.4423   15.0881 C.2       1 <1>         0.1101 
      3 C3         -2.4243   10.0263   14.8466 C.3       1 <1>         0.0233 
      4 C4         -3.5002    9.5218   13.8515 C.3       1 <1>        -0.0251 
      5 C5         -4.7488   10.3879   14.1613 C.3       1 <1>         0.0113 
      6 C6         -4.1730   11.7945   14.4668 C.3       1 <1>         0.0443 
      7 C7         -3.9431   12.5873   13.1624 C.3       1 <1>        -0.0200 
      8 C8         -5.7721   10.3255   13.0431 C.2       1 <1>         0.0202 
      9 C9         -5.2985   12.7355   12.4333 C.3       1 <1>        -0.0114 
     10 C10        -5.9872   11.3971   12.2654 C.2       1 <1>        -0.0643 
     11 C11        -5.1707   13.5233   11.0950 C.3       1 <1>        -0.0431 
     12 C12        -4.2234   12.8531   10.0640 C.3       1 <1>        -0.0630 
     13 C13        -6.5190    9.0424   12.9050 C.2       1 <1>         0.1865 
     14 O14        -6.3485    8.2131   13.7850 O.2       1 <1>        -0.3964 
     15 N15        -7.3738    8.7456   11.9031 N.am      1 <1>        -0.2783 
     16 C16        -8.2078    7.5508   12.0196 C.3       1 <1>         0.1458 
     17 C17        -9.3836    7.6326   12.9712 C.2       1 <1>         0.2821 
     18 O18        -9.4948    6.8647   13.9118 O.2       1 <1>        -0.3099 
     19 O19       -10.3233    8.5609   12.7611 O.3       1 <1>        -0.2915 
     20 C20        -7.7042    6.1215   11.7075 C.3       1 <1>        -0.0061 
     21 C21        -6.2169    5.9126   11.3223 C.3       1 <1>        -0.0517 
     22 C22        -5.5196    5.0223   12.3824 C.3       1 <1>        -0.0651 
     23 C23        -8.5257    6.9000   10.6568 C.3       1 <1>        -0.0147 
     24 H1         -2.4767    9.4859   15.8039 H         1 <1>         0.0496 
     25 H2         -1.4017    9.9670   14.4422 H         1 <1>         0.0496 
     26 H3         -3.6930    8.4410   13.9512 H         1 <1>         0.0312 
     27 H4         -3.1683    9.7078   12.8179 H         1 <1>         0.0312 
     28 H5         -5.2035   10.0122   15.0954 H         1 <1>         0.0447 
     29 H6         -4.8113   12.3606   15.1661 H         1 <1>         0.0552 
     30 H7         -3.2249   12.0486   12.5302 H         1 <1>         0.0322 
     31 H8         -3.5152   13.5754   13.3969 H         1 <1>         0.0322 
     32 H9         -5.9674   13.3251   13.0846 H         1 <1>         0.0473 
     33 H10        -6.7180   11.3725   11.4621 H         1 <1>         0.0641 
     34 H11        -4.8055   14.5443   11.3004 H         1 <1>         0.0290 
     35 H12        -6.1735   13.6170   10.6437 H         1 <1>         0.0290 
     36 H13        -4.3217   13.3519    9.0870 H         1 <1>         0.0232 
     37 H14        -4.4740   11.7887    9.9388 H         1 <1>         0.0232 
     38 H15        -3.1710   12.9386   10.3727 H         1 <1>         0.0232 
     39 H16        -7.5303    9.3320   11.1128 H         1 <1>         0.1820 
     40 H17       -10.1585    9.1112   12.0078 H         1 <1>         0.2528 
     41 H18        -8.2737    5.2683   12.1105 H         1 <1>         0.0311 
     42 H19        -5.6873    6.8734   11.2277 H         1 <1>         0.0264 
     43 H20        -6.1808    5.3998   10.3473 H         1 <1>         0.0264 
     44 H21        -4.4587    4.8783   12.1249 H         1 <1>         0.0230 
     45 H22        -6.0038    4.0338   12.4296 H         1 <1>         0.0230 
     46 H23        -5.5823    5.4928   13.3764 H         1 <1>         0.0230 
     47 H24        -9.5756    6.6062   10.4976 H         1 <1>         0.0278 
     48 H25        -7.9731    7.2530    9.7717 H         1 <1>         0.0278 
@<TRIPOS>BOND
     1    2    1 2    
     2    2    3 1    
     3    3    4 1    
     4    4    5 1    
     5    5    6 1    
     6    2    6 1    
     7    6    7 1    
     8    5    8 1    
     9    7    9 1    
    10    9   10 1    
    11    8   10 2    
    12    9   11 1    
    13   11   12 1    
    14    8   13 1    
    15   13   14 2    
    16   13   15 am   
    17   15   16 1    
    18   16   17 1    
    19   17   18 2    
    20   17   19 1    
    21   16   20 1    
    22   20   21 1    
    23   21   22 1    
    24   20   23 1    
    25   16   23 1    
    26    3   24 1    
    27    3   25 1    
    28    4   26 1    
    29    4   27 1    
    30    5   28 1    
    31    6   29 1    
    32    7   30 1    
    33    7   31 1    
    34    9   32 1    
    35   10   33 1    
    36   11   34 1    
    37   11   35 1    
    38   12   36 1    
    39   12   37 1    
    40   12   38 1    
    41   15   39 1    
    42   19   40 1    
    43   20   41 1    
    44   21   42 1    
    45   21   43 1    
    46   22   44 1    
    47   22   45 1    
    48   22   46 1    
    49   23   47 1    
    50   23   48 1    
@<TRIPOS>SUBSTRUCTURE
     1 ****        2 TEMP              0 ****  ****    0 ROOT 
@<TRIPOS>NORMAL
@<TRIPOS>FF_PBC
FORCE_FIELD_SETUP_FEATURE Force Field Setup information
v1.0  0 0.000000 0.000000 0.000000 0.000000 0.000000 0.000000 NONE 0 0 0 0 1 0 0 0 0 0 0 0 0
