#	Name:			PISM00786.1
#	Creating user name:	baoopengkun
#	Creation time:		Sat Dec 15 01:09:24 2018

#	Modifying user name:	baoopengkun
#	Modification time:	Sat Dec 15 01:18:09 2018

@<TRIPOS>MOLECULE
PISM00786.1
   50    54     1     1     0
SMALL
GAST_HUCK


@<TRIPOS>ATOM
      1 C1         25.6597   11.4809  -27.1782 C.ar      1 <1>        -0.0395 
      2 C2         26.8898   11.1896  -26.5657 C.ar      1 <1>        -0.0682 
      3 C3         26.9730   10.3342  -25.4582 C.ar      1 <1>        -0.0412 
      4 C4         25.7821    9.7854  -24.9817 C.ar      1 <1>         0.0661 
      5 C5         24.5710   10.0837  -25.5914 C.ar      1 <1>        -0.0102 
      6 C6         24.4667   10.9275  -26.6948 C.ar      1 <1>        -0.0648 
      7 C7         23.6001    9.2914  -24.7584 C.2       1 <1>        -0.0184 
      8 C8         24.3188    8.6694  -23.8303 C.2       1 <1>         0.1038 
      9 N9         25.5924    8.9412  -23.9392 N.pl3     1 <1>        -0.2676 
     10 C10        26.6416    8.4158  -23.0743 C.3       1 <1>         0.0369 
     11 C11        23.4257    7.8791  -22.9886 C.2       1 <1>         0.1397 
     12 O12        23.7082    7.1777  -22.0306 O.2       1 <1>        -0.4040 
     13 C13        22.0818    8.1135  -23.5492 C.2       1 <1>         0.0278 
     14 C14        22.1162    9.0589  -24.7371 C.3       1 <1>        -0.0036 
     15 C15        20.9598    7.5632  -23.0758 C.2       1 <1>         0.0829 
     16 O16        19.7890    7.8534  -23.6618 O.3       1 <1>        -0.2667 
     17 C17        18.6557    7.2042  -23.0587 C.3       1 <1>         0.2400 
     18 C18        18.4537    7.6207  -21.6208 C.2       1 <1>        -0.0007 
     19 C19        18.4732    6.5532  -20.8246 C.2       1 <1>         0.0293 
     20 C20        18.6917    5.4406  -21.7438 C.2       1 <1>         0.2496 
     21 O21        18.8209    5.7721  -23.0233 O.3       1 <1>        -0.2302 
     22 C22        18.3005    6.5009  -19.3312 C.3       1 <1>        -0.0323 
     23 O23        18.7578    4.2832  -21.3685 O.2       1 <1>        -0.3691 
     24 C24        25.6172   12.3857  -28.3534 C.ar      1 <1>        -0.0373 
     25 H2         27.7986   11.6373  -26.9551 H         1 <1>         0.0548 
     26 H3         27.9252   10.1091  -24.9911 H         1 <1>         0.0548 
     27 H4         23.5058   11.1375  -27.1515 H         1 <1>         0.0554 
     28 H5         27.1581    9.2501  -22.5761 H         1 <1>         0.0555 
     29 H6         27.3669    7.8504  -23.6788 H         1 <1>         0.0555 
     30 H7         26.2350    7.7458  -22.3012 H         1 <1>         0.0555 
     31 H8         21.5623    9.9902  -24.5464 H         1 <1>         0.0475 
     32 H9         21.7680    8.5780  -25.6636 H         1 <1>         0.0475 
     33 H10        21.0665    6.8926  -22.2197 H         1 <1>         0.1132 
     34 H11        17.7549    7.4510  -23.6434 H         1 <1>         0.1214 
     35 H12        18.3115    8.6487  -21.2896 H         1 <1>         0.0706 
     36 H13        17.9830    5.4936  -19.0222 H         1 <1>         0.0347 
     37 H14        17.5396    7.2277  -19.0092 H         1 <1>         0.0347 
     38 H15        19.2574    6.7399  -18.8440 H         1 <1>         0.0347 
     39 C39        24.8117   13.5269  -28.3358 C.ar      1 <1>        -0.0667 
     40 C40        24.7697   14.3763  -29.4453 C.ar      1 <1>        -0.0365 
     41 C41        25.5354   14.1072  -30.5895 C.ar      1 <1>         0.1315 
     42 C42        26.3418   12.9594  -30.5937 C.ar      1 <1>        -0.0365 
     43 C43        26.3813   12.1042  -29.4885 C.ar      1 <1>        -0.0667 
     44 N44        25.4968   14.9378  -31.6670 N.pl3     1 <1>         0.1218 
     45 O45        24.7842   15.9168  -31.6125 O.2       1 <1>        -0.1127 
     46 O46        26.1770   14.6601  -32.6311 O.2       1 <1>        -0.1127 
     47 H1         24.2177   13.7558  -27.4562 H         1 <1>         0.0582 
     48 H16        24.1292   15.2511  -29.3995 H         1 <1>         0.0520 
     49 H17        26.9512   12.7127  -31.4572 H         1 <1>         0.0520 
     50 H18        27.0061   11.2165  -29.5133 H         1 <1>         0.0582 
@<TRIPOS>BOND
     1    2    1 ar   
     2    2    3 ar   
     3    3    4 ar   
     4    4    5 ar   
     5    5    6 ar   
     6    1    6 ar   
     7    5    7 1    
     8    7    8 2    
     9    8    9 1    
    10    4    9 1    
    11    9   10 1    
    12    8   11 1    
    13   11   12 2    
    14   11   13 1    
    15   13   14 1    
    16    7   14 1    
    17   13   15 2    
    18   15   16 1    
    19   16   17 1    
    20   17   18 1    
    21   18   19 2    
    22   19   20 1    
    23   20   21 1    
    24   17   21 1    
    25   19   22 1    
    26   20   23 2    
    27    1   24 1    
    28    2   25 1    
    29    3   26 1    
    30    6   27 1    
    31   10   28 1    
    32   10   29 1    
    33   10   30 1    
    34   14   31 1    
    35   14   32 1    
    36   15   33 1    
    37   17   34 1    
    38   18   35 1    
    39   22   36 1    
    40   22   37 1    
    41   22   38 1    
    42   24   39 ar   
    43   39   40 ar   
    44   40   41 ar   
    45   41   42 ar   
    46   42   43 ar   
    47   24   43 ar   
    48   41   44 1    
    49   44   45 2    
    50   44   46 2    
    51   39   47 1    
    52   40   48 1    
    53   42   49 1    
    54   43   50 1    
@<TRIPOS>SUBSTRUCTURE
     1 ****        2 TEMP              0 ****  ****    0 ROOT 
@<TRIPOS>NORMAL
@<TRIPOS>FF_PBC
FORCE_FIELD_SETUP_FEATURE Force Field Setup information
v1.0  0 0.000000 0.000000 0.000000 0.000000 0.000000 0.000000 NONE 0 0 0 0 1 0 0 0 0 0 0 0 0
