#	Name:			PISM00867
#	Creating user name:	baoopengkun
#	Creation time:		Thu Dec 13 23:15:37 2018

#	Modifying user name:	baoopengkun
#	Modification time:	Thu Dec 13 23:31:17 2018

@<TRIPOS>MOLECULE
PISM00867
   24    25     1     1     0
SMALL
GAST_HUCK


@<TRIPOS>ATOM
      1 H2          0.4493    1.8535    1.5731 H         1 <1>         0.0521 
      2 C2         -1.1987    3.2440    1.4831 C.ar      1 <1>        -0.0410 
      3 C3         -2.1308    3.8789    0.6580 C.ar      1 <1>         0.1186 
      4 C4         -2.1407    3.6201   -0.7147 C.ar      1 <1>        -0.0033 
      5 C5         -1.2156    2.7290   -1.2638 C.ar      1 <1>         0.1584 
      6 C6         -0.2710    2.1056   -0.4418 C.ar      1 <1>         0.1273 
      7 C7         -0.2710    2.3536    0.9340 C.ar      1 <1>        -0.0359 
      8 F8         -1.2381    2.4771   -2.5709 F         1 <1>        -0.1911 
      9 O9          0.6698    1.2384   -0.9949 O.3       1 <1>        -0.2735 
     10 C10         1.9378    1.8689   -1.2142 C.3       1 <1>         0.2342 
     11 O11         1.7699    3.0359   -2.0447 O.3       1 <1>        -0.2316 
     12 C12         2.4176    2.7598   -3.1695 C.2       1 <1>         0.2494 
     13 C13         3.0818    1.4615   -3.2089 C.2       1 <1>         0.0291 
     14 C14         2.7956    0.9279   -2.0229 C.2       1 <1>        -0.0022 
     15 C15         3.8923    0.8634   -4.3262 C.3       1 <1>        -0.0323 
     16 O16         2.4585    3.5468   -4.0995 O.2       1 <1>        -0.3691 
     17 H1         -1.1999    3.4457    2.5494 H         1 <1>         0.0543 
     18 F18        -3.0097    4.7295    1.1799 F         1 <1>        -0.1939 
     19 H3         -2.8663    4.1106   -1.3540 H         1 <1>         0.0562 
     20 H4          2.4342    2.1418   -0.2683 H         1 <1>         0.1195 
     21 H5          3.1253   -0.0527   -1.6824 H         1 <1>         0.0705 
     22 H6          3.5525   -0.1633   -4.5287 H         1 <1>         0.0347 
     23 H7          4.9544    0.8429   -4.0404 H         1 <1>         0.0347 
     24 H8          3.7797    1.4628   -5.2422 H         1 <1>         0.0347 
@<TRIPOS>BOND
     1    7    1 1    
     2    3    2 ar   
     3    4    3 ar   
     4    5    4 ar   
     5    6    5 ar   
     6    6    7 ar   
     7    2    7 ar   
     8    5    8 1    
     9    6    9 1    
    10    9   10 1    
    11   10   11 1    
    12   11   12 1    
    13   12   13 1    
    14   13   14 2    
    15   10   14 1    
    16   13   15 1    
    17   12   16 2    
    18    2   17 1    
    19    3   18 1    
    20    4   19 1    
    21   10   20 1    
    22   14   21 1    
    23   15   22 1    
    24   15   23 1    
    25   15   24 1    
@<TRIPOS>SUBSTRUCTURE
     1 ****        2 TEMP              0 ****  ****    0 ROOT 
@<TRIPOS>NORMAL
@<TRIPOS>FF_PBC
FORCE_FIELD_SETUP_FEATURE Force Field Setup information
v1.0  0 0.000000 0.000000 0.000000 0.000000 0.000000 0.000000 NONE 0 0 0 0 1 0 0 0 0 0 0 0 0
