#	Name:			PISM00852.1
#	Creating user name:	baoopengkun
#	Creation time:		Sat Jan 12 21:11:02 2019

#	Modifying user name:	baoopengkun
#	Modification time:	Sat Jan 12 21:12:55 2019

@<TRIPOS>MOLECULE
PISM00852.1
   24    25     1     1     0
SMALL
GAST_HUCK


@<TRIPOS>ATOM
      1 Cl1        -4.4723   -2.7721    2.5983 Cl        1 <1>        -0.0728 
      2 C2         -3.1679   -2.1489    1.6078 C.ar      1 <1>         0.0457 
      3 C3         -2.4624   -1.0074    2.0030 C.ar      1 <1>         0.0424 
      4 Cl4        -2.8651   -0.1906    3.4998 Cl        1 <1>        -0.0803 
      5 C5         -1.4296   -0.5125    1.2015 C.ar      1 <1>        -0.0562 
      6 C6         -1.0937   -1.1651    0.0120 C.ar      1 <1>        -0.0319 
      7 C7         -1.7869   -2.3147   -0.3743 C.ar      1 <1>         0.0988 
      8 C8         -2.8329   -2.7982    0.4163 C.ar      1 <1>        -0.0183 
      9 O9         -1.4303   -2.9746   -1.5484 O.3       1 <1>        -0.2706 
     10 C10        -0.6505   -4.1617   -1.3447 C.3       1 <1>         0.2358 
     11 O11        -0.2796   -4.6706   -2.6412 O.3       1 <1>        -0.2313 
     12 C12         1.0433   -4.5717   -2.6917 C.2       1 <1>         0.2494 
     13 O13         1.6776   -4.8969   -3.6806 O.2       1 <1>        -0.3691 
     14 C14         1.6809   -4.0595   -1.4843 C.2       1 <1>         0.0292 
     15 C15         0.6572   -3.8233   -0.6670 C.2       1 <1>        -0.0019 
     16 C16         3.1460   -3.8466   -1.2192 C.3       1 <1>        -0.0323 
     17 H1         -0.8898    0.3790    1.5042 H         1 <1>         0.0596 
     18 H2         -0.2942   -0.7848   -0.6153 H         1 <1>         0.0545 
     19 H3         -3.3853   -3.6774    0.1040 H         1 <1>         0.0548 
     20 H4         -1.2084   -4.9345   -0.7909 H         1 <1>         0.1199 
     21 H5          0.7515   -3.4340    0.3461 H         1 <1>         0.0705 
     22 H6          3.4761   -4.5128   -0.4088 H         1 <1>         0.0347 
     23 H7          3.3215   -2.8019   -0.9223 H         1 <1>         0.0347 
     24 H8          3.7337   -4.0652   -2.1231 H         1 <1>         0.0347 
@<TRIPOS>BOND
     1    2    1 1    
     2    2    3 ar   
     3    3    4 1    
     4    3    5 ar   
     5    5    6 ar   
     6    6    7 ar   
     7    7    8 ar   
     8    2    8 ar   
     9    7    9 1    
    10    9   10 1    
    11   10   11 1    
    12   11   12 1    
    13   12   13 2    
    14   12   14 1    
    15   14   15 2    
    16   10   15 1    
    17   14   16 1    
    18    5   17 1    
    19    6   18 1    
    20    8   19 1    
    21   10   20 1    
    22   15   21 1    
    23   16   22 1    
    24   16   23 1    
    25   16   24 1    
@<TRIPOS>SUBSTRUCTURE
     1 ****        2 TEMP              0 ****  ****    0 ROOT 
@<TRIPOS>NORMAL
@<TRIPOS>FF_PBC
FORCE_FIELD_SETUP_FEATURE Force Field Setup information
v1.0  0 0.000000 0.000000 0.000000 0.000000 0.000000 0.000000 NONE 0 0 0 0 1 0 0 0 0 0 0 0 0
