#	Name:			PISM00313
#	Creating user name:	baoopengkun
#	Creation time:		Sun Dec 16 04:14:33 2018

#	Modifying user name:	baoopengkun
#	Modification time:	Sun Dec 16 04:17:27 2018

@<TRIPOS>MOLECULE
PISM00313
   47    49     1     1     0
SMALL
GAST_HUCK


@<TRIPOS>ATOM
      1 O1          1.2136   12.4493   45.6672 O.2       1 <1>        -0.3812 
      2 C2          0.1403   12.9895   45.8820 C.2       1 <1>         0.1999 
      3 C3         -0.0699   13.5952   47.2437 C.3       1 <1>         0.0497 
      4 C4         -1.4953   13.2260   47.7101 C.3       1 <1>        -0.0077 
      5 C5         -2.4553   13.6691   46.6079 C.ar      1 <1>        -0.0322 
      6 C6         -1.9907   13.6760   45.2876 C.ar      1 <1>         0.0505 
      7 N7         -0.8169   13.0512   44.9878 N.pl3     1 <1>        -0.2378 
      8 C8         -0.6088   12.3756   43.6971 C.3       1 <1>         0.0446 
      9 C9         -0.7393   10.8420   43.9052 C.3       1 <1>        -0.0331 
     10 C10        -0.5412   10.0622   42.5786 C.3       1 <1>        -0.0632 
     11 C11        -2.7685   14.3366   44.3275 C.ar      1 <1>        -0.0607 
     12 C12        -4.0787   14.7251   44.6225 C.ar      1 <1>        -0.0617 
     13 C13        -4.5884   14.5910   45.9172 C.ar      1 <1>         0.0440 
     14 C14        -3.7622   14.0617   46.9134 C.ar      1 <1>        -0.0529 
     15 N15        -5.9243   14.9939   46.1940 N.am      1 <1>        -0.1982 
     16 S16        -6.4030   15.8740   47.5056 S.o2      1 <1>         0.0678 
     17 O17        -7.8422   16.0323   47.4386 O.2       1 <1>        -0.1482 
     18 O18        -5.8216   15.3499   48.7223 O.2       1 <1>        -0.1482 
     19 C19        -5.6604   17.4784   47.1483 C.3       1 <1>         0.1230 
     20 C20        -4.1573   17.3426   46.8744 C.ar      1 <1>        -0.0199 
     21 C21        -3.2848   17.0103   47.9165 C.ar      1 <1>        -0.0587 
     22 C22        -1.9148   16.8741   47.6750 C.ar      1 <1>        -0.0685 
     23 C23        -1.4084   17.0729   46.3876 C.ar      1 <1>        -0.0687 
     24 C24        -2.2754   17.3990   45.3420 C.ar      1 <1>        -0.0685 
     25 C25        -3.6435   17.5440   45.5876 C.ar      1 <1>        -0.0587 
     26 H1          0.0529   14.6842   47.1641 H         1 <1>         0.0529 
     27 H2          0.6729   13.2101   47.9607 H         1 <1>         0.0529 
     28 H3         -1.7227   13.7300   48.6634 H         1 <1>         0.0425 
     29 H4         -1.5927   12.1370   47.8447 H         1 <1>         0.0425 
     30 H5          0.3886   12.6222   43.2968 H         1 <1>         0.0550 
     31 H6         -1.3392   12.6408   42.9212 H         1 <1>         0.0550 
     32 H7         -1.7405   10.6243   44.3132 H         1 <1>         0.0284 
     33 H8          0.0073   10.4905   44.6353 H         1 <1>         0.0284 
     34 H9          0.4581   10.2639   42.1621 H         1 <1>         0.0230 
     35 H10        -1.3001   10.3582   41.8376 H         1 <1>         0.0230 
     36 H11        -0.6336    8.9794   42.7586 H         1 <1>         0.0230 
     37 H12        -2.3715   14.5750   43.3481 H         1 <1>         0.0470 
     38 H13        -4.7021   15.1457   43.8402 H         1 <1>         0.0398 
     39 H14        -4.1220   13.9369   47.9246 H         1 <1>         0.0392 
     40 H15        -6.6187   14.8241   45.4947 H         1 <1>         0.2114 
     41 H16        -5.8271   18.1419   48.0096 H         1 <1>         0.0687 
     42 H17        -6.1845   17.9016   46.2789 H         1 <1>         0.0687 
     43 H18        -3.6687   16.8561   48.9197 H         1 <1>         0.0557 
     44 H19        -1.2446   16.6155   48.4890 H         1 <1>         0.0599 
     45 H20        -0.3441   16.9780   46.1970 H         1 <1>         0.0559 
     46 H21        -1.8855   17.5397   44.3385 H         1 <1>         0.0599 
     47 H22        -4.3016   17.8103   44.7670 H         1 <1>         0.0557 
@<TRIPOS>BOND
     1    2    1 2    
     2    2    3 1    
     3    3    4 1    
     4    4    5 1    
     5    5    6 ar   
     6    6    7 1    
     7    2    7 1    
     8    7    8 1    
     9    8    9 1    
    10    9   10 1    
    11    6   11 ar   
    12   11   12 ar   
    13   12   13 ar   
    14   13   14 ar   
    15    5   14 ar   
    16   13   15 1    
    17   15   16 1    
    18   16   17 2    
    19   16   18 2    
    20   16   19 1    
    21   19   20 1    
    22   20   21 ar   
    23   21   22 ar   
    24   22   23 ar   
    25   23   24 ar   
    26   24   25 ar   
    27   20   25 ar   
    28    3   26 1    
    29    3   27 1    
    30    4   28 1    
    31    4   29 1    
    32    8   30 1    
    33    8   31 1    
    34    9   32 1    
    35    9   33 1    
    36   10   34 1    
    37   10   35 1    
    38   10   36 1    
    39   11   37 1    
    40   12   38 1    
    41   14   39 1    
    42   15   40 1    
    43   19   41 1    
    44   19   42 1    
    45   21   43 1    
    46   22   44 1    
    47   23   45 1    
    48   24   46 1    
    49   25   47 1    
@<TRIPOS>SUBSTRUCTURE
     1 ****        2 TEMP              0 ****  ****    0 ROOT 
@<TRIPOS>NORMAL
@<TRIPOS>FF_PBC
FORCE_FIELD_SETUP_FEATURE Force Field Setup information
v1.0  0 0.000000 0.000000 0.000000 0.000000 0.000000 0.000000 NONE 0 0 0 0 1 0 0 0 0 0 0 0 0
