#	Name:			PISM00078
#	Creating user name:	baoopengkun
#	Creation time:		Thu Dec 27 12:18:05 2018

#	Modifying user name:	baoopengkun
#	Modification time:	Thu Dec 27 12:19:29 2018

@<TRIPOS>MOLECULE
PISM00078
   34    35     1     1     0
SMALL
GAST_HUCK


@<TRIPOS>ATOM
      1 C1         -0.3438    6.9882  -17.8698 C.ar      1 <1>        -0.0560 
      2 C2          0.5102    7.9999  -18.3175 C.ar      1 <1>        -0.0573 
      3 C3          1.3009    8.6988  -17.4011 C.ar      1 <1>        -0.0560 
      4 C4          1.2217    8.3985  -16.0380 C.ar      1 <1>        -0.0434 
      5 C5          0.3508    7.4030  -15.5815 C.ar      1 <1>         0.0340 
      6 C6         -0.4085    6.6787  -16.5080 C.ar      1 <1>        -0.0434 
      7 C7          0.2522    7.1191  -14.0973 C.2       1 <1>         0.1578 
      8 O8          1.2307    7.3143  -13.3941 O.2       1 <1>        -0.3671 
      9 C9         -1.0190    6.6019  -13.4573 C.ar      1 <1>         0.0239 
     10 C10        -2.2745    6.9349  -13.9780 C.ar      1 <1>        -0.0217 
     11 C11        -3.4462    6.4083  -13.4233 C.ar      1 <1>         0.0671 
     12 C12        -3.3526    5.5472  -12.3232 C.ar      1 <1>        -0.0354 
     13 C13        -2.1072    5.2612  -11.7567 C.ar      1 <1>        -0.0664 
     14 C14        -0.9431    5.7881  -12.3224 C.ar      1 <1>        -0.0555 
     15 N15        -4.6454    6.7340  -13.9676 N.pl3     1 <1>        -0.2387 
     16 C16        -5.6767    7.0613  -13.2329 C.2       1 <1>         0.2004 
     17 O17        -5.6346    7.1094  -12.0149 O.2       1 <1>        -0.3795 
     18 C18        -6.9753    7.4084  -13.9251 C.3       1 <1>         0.0398 
     19 C19        -8.1202    7.7443  -12.9337 C.3       1 <1>        -0.0475 
     20 H1         -0.9551    6.4407  -18.5810 H         1 <1>         0.0630 
     21 H2          0.5607    8.2413  -19.3750 H         1 <1>         0.0654 
     22 H3          1.9758    9.4756  -17.7478 H         1 <1>         0.0630 
     23 H4          1.8384    8.9447  -15.3310 H         1 <1>         0.0670 
     24 H5         -1.0464    5.8652  -16.1779 H         1 <1>         0.0670 
     25 H6         -2.3476    7.6203  -14.8153 H         1 <1>         0.0579 
     26 H7         -4.2425    5.0887  -11.9051 H         1 <1>         0.0566 
     27 H8         -2.0437    4.6261  -10.8782 H         1 <1>         0.0598 
     28 H9          0.0217    5.5600  -11.8801 H         1 <1>         0.0567 
     29 H10        -4.7323    6.7446  -14.9945 H         1 <1>         0.2108 
     30 H11        -7.2804    6.5533  -14.5491 H         1 <1>         0.0508 
     31 H12        -6.8006    8.2775  -14.5791 H         1 <1>         0.0508 
     32 H13        -9.0428    7.9888  -13.4836 H         1 <1>         0.0255 
     33 H14        -7.8434    8.6086  -12.3095 H         1 <1>         0.0255 
     34 H15        -8.3198    6.8828  -12.2771 H         1 <1>         0.0255 
@<TRIPOS>BOND
     1    2    1 ar   
     2    2    3 ar   
     3    3    4 ar   
     4    4    5 ar   
     5    5    6 ar   
     6    6    1 ar   
     7    5    7 1    
     8    7    8 2    
     9    7    9 1    
    10    9   10 ar   
    11   10   11 ar   
    12   11   12 ar   
    13   12   13 ar   
    14   13   14 ar   
    15    9   14 ar   
    16   11   15 1    
    17   15   16 1    
    18   16   17 2    
    19   16   18 1    
    20   18   19 1    
    21    1   20 1    
    22    2   21 1    
    23    3   22 1    
    24    4   23 1    
    25    6   24 1    
    26   10   25 1    
    27   12   26 1    
    28   13   27 1    
    29   14   28 1    
    30   15   29 1    
    31   18   30 1    
    32   18   31 1    
    33   19   32 1    
    34   19   33 1    
    35   19   34 1    
@<TRIPOS>SUBSTRUCTURE
     1 ****        2 TEMP              0 ****  ****    0 ROOT 
@<TRIPOS>NORMAL
@<TRIPOS>FF_PBC
FORCE_FIELD_SETUP_FEATURE Force Field Setup information
v1.0  0 0.000000 0.000000 0.000000 0.000000 0.000000 0.000000 NONE 0 0 0 0 1 0 0 0 0 0 0 0 0
