#	Name:			PISM00325
#	Creating user name:	malab
#	Creation time:		Fri Apr 05 17:19:37 2019

#	Modifying user name:	malab
#	Modification time:	Fri Apr 05 17:30:04 2019

@<TRIPOS>MOLECULE
PISM00325
   38    38     1     1     0
SMALL
GAST_HUCK


@<TRIPOS>ATOM
      1 C1         -4.6843  -11.5647  -19.2616 C.3       1 <1>         0.0217 
      2 C2         -4.3948  -12.5865  -20.3964 C.3       1 <1>         0.0293 
      3 C3         -3.0077  -12.3635  -20.9334 C.2       1 <1>         0.1475 
      4 C4         -2.3971  -11.0245  -20.8817 C.2       1 <1>         0.0132 
      5 C5         -3.0467   -9.9729  -20.3651 C.2       1 <1>        -0.0659 
      6 C6         -4.4489  -10.1198  -19.7983 C.3       1 <1>         0.0477 
      7 O7         -2.3813  -13.2941  -21.4140 O.2       1 <1>        -0.3649 
      8 C8         -3.8101  -11.8894  -18.0141 C.3       1 <1>        -0.0601 
      9 C9         -6.0901  -11.6865  -18.8728 C.1       1 <1>        -0.1131 
     10 C10        -7.2467  -11.7787  -18.5533 C.1       1 <1>        -0.1201 
     11 H1         -4.4873  -13.6153  -20.0110 H         1 <1>         0.0000 
     12 O12        -5.3593   -9.9278  -20.8982 O.3       1 <1>        -0.4646 
     13 C13        -4.7196   -9.1295  -18.6806 C.2       1 <1>        -0.0852 
     14 C14        -5.8408   -8.4035  -18.5773 C.2       1 <1>        -0.0144 
     15 H2         -5.1045  -12.4735  -21.2309 H         1 <1>         0.0000 
     16 H3         -1.3898  -10.9132  -21.2835 H         1 <1>         0.0000 
     17 H4         -3.9357  -12.9440  -17.7242 H         1 <1>         0.0000 
     18 H5         -4.1024  -11.2774  -17.1476 H         1 <1>         0.0000 
     19 H6         -2.7432  -11.7147  -18.2174 H         1 <1>         0.0000 
     20 H7         -8.2611  -11.8589  -18.2721 H         1 <1>         0.0000 
     21 C21        -2.4261   -8.5916  -20.3411 C.3       1 <1>        -0.0367 
     22 H8         -5.2713   -9.0785  -21.3177 H         1 <1>         0.0000 
     23 H9         -3.9567   -9.0031  -17.9134 H         1 <1>         0.0000 
     24 C24        -6.0893   -7.4554  -17.4697 C.2       1 <1>         0.0000 
     25 H11        -6.6268   -8.4924  -19.3266 H         1 <1>         0.0000 
     26 H12        -2.0735   -8.3539  -19.3270 H         1 <1>         0.0000 
     27 H13        -3.1623   -7.8345  -20.6499 H         1 <1>         0.0000 
     28 H14        -1.5665   -8.5208  -21.0244 H         1 <1>         0.0000 
     29 C29        -5.6852   -7.8447  -16.0657 C.3       1 <1>         0.0000 
     30 C30        -6.6850   -6.2738  -17.6918 C.2       1 <1>         0.0000 
     31 C31        -7.1037   -5.7447  -19.0087 C.2       1 <1>         0.0000 
     32 O32        -8.1739   -5.1678  -19.1065 O.2       1 <1>         0.0000 
     33 O33        -6.3326   -5.8639  -20.0964 O.3       1 <1>         0.0000 
     34 H10        -5.6160   -8.9384  -15.9653 H         1 <1>         0.0000 
     35 H15        -6.4179   -7.4883  -15.3260 H         1 <1>         0.0000 
     36 H16        -4.7051   -7.4033  -15.8342 H         1 <1>         0.0000 
     37 H17        -6.8978   -5.6200  -16.8453 H         1 <1>         0.0000 
     38 H18        -5.4716   -6.2303  -19.9317 H         1 <1>         0.0000 
@<TRIPOS>BOND
     1    2    3 1    
     2    1    2 1    
     3    4    3 1    
     4    5    4 2    
     5    6    5 1    
     6    6    1 1    
     7    3    7 2    
     8    1    8 1    
     9    1    9 1    
    10    9   10 3    
    11    2   11 1    
    12    6   12 1    
    13   13    6 1    
    14   14   13 2    
    15    2   15 1    
    16    4   16 1    
    17    8   17 1    
    18    8   18 1    
    19    8   19 1    
    20   10   20 1    
    21    5   21 1    
    22   12   22 1    
    23   13   23 1    
    24   14   24 1    
    25   14   25 1    
    26   21   26 1    
    27   21   27 1    
    28   21   28 1    
    29   24   29 1    
    30   24   30 2    
    31   30   31 1    
    32   31   32 2    
    33   31   33 1    
    34   29   34 1    
    35   29   35 1    
    36   29   36 1    
    37   30   37 1    
    38   33   38 1    
@<TRIPOS>SUBSTRUCTURE
     1 ****        1 TEMP              0 ****  ****    0 ROOT 
@<TRIPOS>NORMAL
@<TRIPOS>FF_PBC
FORCE_FIELD_SETUP_FEATURE Force Field Setup information
v1.0  0 0.000000 0.000000 0.000000 0.000000 0.000000 0.000000 NONE 0 0 0 0 0 0 0 0 0 0 0 0 0
