#	Name:			PISM00231.3
#	Creating user name:	14062
#	Creation time:		Sat Apr 06 01:34:04 2019

#	Modifying user name:	14062
#	Modification time:	Sat Apr 06 01:39:19 2019

@<TRIPOS>MOLECULE
PISM00231.3
   29    30     1     1     0
SMALL
GAST_HUCK


@<TRIPOS>ATOM
      1 C1         -3.9236    2.4488    4.6014 C.3       1 CN          0.0658 
      2 O2         -2.8160    3.3655    4.6631 O.3       1 CN         -0.2793 
      3 C3         -2.2855    3.8075    3.5048 C.2       1 CN          0.2497 
      4 O4         -1.3600    4.5983    3.5802 O.2       1 CN         -0.3691 
      5 C5         -2.7527    3.3814    2.1258 C.3       1 CN          0.1373 
      6 S6         -3.2286    4.8817    1.2006 S.3       1 CN         -0.1311 
      7 C7         -2.2005    4.5449   -0.2595 C.3       1 CN         -0.0006 
      8 C8         -1.9378    3.0248   -0.1808 C.3       1 CN         -0.0084 
      9 C9         -1.6133    2.7268    1.3007 C.3       1 CN          0.1202 
     10 O10        -1.5649    1.2995    1.4819 O.3       1 CN         -0.2750 
     11 C11        -1.2463    0.8548    2.7657 C.ar      1 CN          0.2342 
     12 N12        -0.5883    1.6612    3.6232 N.ar      1 CN         -0.2356 
     13 C13        -0.3772    1.2878    4.9014 C.ar      1 CN          0.0391 
     14 C14        -0.7634    0.0105    5.3192 C.ar      1 CN          0.0411 
     15 N15        -1.3547   -0.8275    4.4424 N.ar      1 CN         -0.2476 
     16 C16        -1.6141   -0.4297    3.1780 C.ar      1 CN          0.2290 
     17 C          -2.2755   -1.3178    2.2572 C.1       1 CN          0.1241 
     18 N          -2.8098   -2.0289    1.5153 N.1       1 CN         -0.3253 
     19 H1         -3.6572    1.5004    4.1105 H         1 CN          0.0577 
     20 H2         -4.8049    2.9024    4.1213 H         1 CN          0.0577 
     21 H3         -4.1947    2.2174    5.6420 H         1 CN          0.0577 
     22 H4         -3.6278    2.7221    2.0776 H         1 CN          0.0699 
     23 H5         -1.2608    5.1113   -0.1607 H         1 CN          0.0379 
     24 H6         -2.7113    4.8405   -1.1894 H         1 CN          0.0379 
     25 H7         -1.1161    2.7180   -0.8483 H         1 CN          0.0305 
     26 H8         -2.8484    2.4742   -0.4700 H         1 CN          0.0305 
     27 H9         -0.6370    3.1871    1.5346 H         1 CN          0.0703 
     28 H10         0.0891    1.9815    5.5934 H         1 CN          0.0957 
     29 H11        -0.5915   -0.3117    6.3410 H         1 CN          0.0857 
@<TRIPOS>BOND
     1    2    1 1    
     2    3    2 1    
     3    3    4 2    
     4    5    3 1    
     5    5    6 1    
     6    6    7 1    
     7    8    7 1    
     8    9    8 1    
     9    9    5 1    
    10   10    9 1    
    11   11   10 1    
    12   11   12 ar   
    13   12   13 ar   
    14   14   13 ar   
    15   15   14 ar   
    16   16   15 ar   
    17   16   11 ar   
    18   17   18 3    
    19   17   16 1    
    20    1   19 1    
    21    1   20 1    
    22    1   21 1    
    23    5   22 1    
    24    7   23 1    
    25    7   24 1    
    26    8   25 1    
    27    8   26 1    
    28    9   27 1    
    29   13   28 1    
    30   14   29 1    
@<TRIPOS>SUBSTRUCTURE
     1 CN         17 PERM              0 ****  ****    0 ROOT 
@<TRIPOS>NORMAL
@<TRIPOS>FF_PBC
FORCE_FIELD_SETUP_FEATURE Force Field Setup information
v1.0  0 0.000000 0.000000 0.000000 0.000000 0.000000 0.000000 NONE 0 0 0 0 1 0 0 0 0 0 0 0 0
