#	Name:			PISM01035.2
#	Creating user name:	malab
#	Creation time:		Tue Jul 02 17:52:53 2019

#	Modifying user name:	malab
#	Modification time:	Tue Jul 02 17:53:16 2019

@<TRIPOS>MOLECULE
PISM01035.2
   43    44     1     1     0
SMALL
GAST_HUCK


@<TRIPOS>ATOM
      1 N1         -8.4890    1.5712   -4.9075 N.pl3     1 <1>        -0.1707 
      2 C2         -8.8743    0.4704   -4.3347 C.2       1 <1>         0.1283 
      3 N3        -10.0448    0.1846   -4.6849 N.2       1 <1>        -0.2870 
      4 C4        -10.5501    1.1661   -5.6031 C.2       1 <1>         0.0618 
      5 N5         -9.5452    1.9559   -5.6793 N.2       1 <1>        -0.1897 
      6 C6         -7.1952    2.2389   -4.7995 C.3       1 <1>         0.1213 
      7 C7         -6.8267    2.6851   -3.3414 C.3       1 <1>         0.0944 
      8 O8         -6.7882    1.5103   -2.5009 O.3       1 <1>        -0.3879 
      9 C9         -7.7079    3.7737   -2.6233 C.3       1 <1>        -0.0085 
     10 C10        -7.4056    3.7214   -1.0903 C.3       1 <1>        -0.0576 
     11 C11        -7.3681    5.2252   -3.0900 C.3       1 <1>        -0.0576 
     12 C12        -9.2291    3.5161   -2.8168 C.3       1 <1>        -0.0576 
     13 C13        -7.0661    3.3391   -5.8896 C.3       1 <1>         0.0132 
     14 C14        -6.9107    2.7080   -7.2838 C.ar      1 <1>        -0.0465 
     15 C15        -5.6798    2.1624   -7.6655 C.ar      1 <1>        -0.0667 
     16 C16        -5.5253    1.5622   -8.9186 C.ar      1 <1>        -0.0671 
     17 C17        -6.5980    1.5125   -9.8153 C.ar      1 <1>        -0.0528 
     18 C18        -7.8260    2.0666   -9.4397 C.ar      1 <1>        -0.0671 
     19 C19        -7.9793    2.6677   -8.1871 C.ar      1 <1>        -0.0667 
     20 C20        -6.4440    0.8627  -11.1957 C.3       1 <1>        -0.0343 
     21 H1         -8.2981   -0.1463   -3.6480 H         1 <1>         0.1361 
     22 H2        -11.5177    1.2241   -6.0991 H         1 <1>         0.0864 
     23 H3         -6.4523    1.4688   -5.0662 H         1 <1>         0.0727 
     24 H4         -5.7981    3.0879   -3.3602 H         1 <1>         0.0633 
     25 H5         -6.1284    0.8663   -2.7410 H         1 <1>         0.2099 
     26 H6         -6.3264    3.8396   -0.9072 H         1 <1>         0.0236 
     27 H7         -7.7284    2.7663   -0.6485 H         1 <1>         0.0236 
     28 H8         -7.9325    4.5221   -0.5485 H         1 <1>         0.0236 
     29 H9         -7.6203    5.4038   -4.1401 H         1 <1>         0.0236 
     30 H10        -6.2974    5.4406   -2.9528 H         1 <1>         0.0236 
     31 H11        -7.9366    5.9615   -2.5010 H         1 <1>         0.0236 
     32 H12        -9.5263    3.6877   -3.8597 H         1 <1>         0.0236 
     33 H13        -9.8216    4.2001   -2.1901 H         1 <1>         0.0236 
     34 H14        -9.4855    2.4842   -2.5342 H         1 <1>         0.0236 
     35 H15        -6.1818    3.9681   -5.7030 H         1 <1>         0.0446 
     36 H16        -7.9573    3.9811   -5.8877 H         1 <1>         0.0446 
     37 H17        -4.8333    2.2017   -6.9872 H         1 <1>         0.0540 
     38 H18        -4.5658    1.1338   -9.1899 H         1 <1>         0.0540 
     39 H19        -8.6687    2.0308  -10.1229 H         1 <1>         0.0540 
     40 H20        -8.9382    3.1025   -7.9249 H         1 <1>         0.0540 
     41 H21        -6.8964   -0.1398  -11.1689 H         1 <1>         0.0378 
     42 H22        -5.3859    0.7698  -11.4828 H         1 <1>         0.0378 
     43 H23        -6.9572    1.4686  -11.9578 H         1 <1>         0.0378 
@<TRIPOS>BOND
     1    2    1 1    
     2    2    3 2    
     3    3    4 1    
     4    4    5 2    
     5    1    5 1    
     6    1    6 1    
     7    6    7 1    
     8    7    8 1    
     9    7    9 1    
    10    9   10 1    
    11    9   11 1    
    12    9   12 1    
    13    6   13 1    
    14   13   14 1    
    15   14   15 ar   
    16   15   16 ar   
    17   16   17 ar   
    18   17   18 ar   
    19   18   19 ar   
    20   14   19 ar   
    21   17   20 1    
    22    2   21 1    
    23    4   22 1    
    24    6   23 1    
    25    7   24 1    
    26    8   25 1    
    27   10   26 1    
    28   10   27 1    
    29   10   28 1    
    30   11   29 1    
    31   11   30 1    
    32   11   31 1    
    33   12   32 1    
    34   12   33 1    
    35   12   34 1    
    36   13   35 1    
    37   13   36 1    
    38   15   37 1    
    39   16   38 1    
    40   18   39 1    
    41   19   40 1    
    42   20   41 1    
    43   20   42 1    
    44   20   43 1    
@<TRIPOS>SUBSTRUCTURE
     1 ****        2 TEMP              0 ****  ****    0 ROOT 
@<TRIPOS>NORMAL
@<TRIPOS>FF_PBC
FORCE_FIELD_SETUP_FEATURE Force Field Setup information
v1.0  0 0.000000 0.000000 0.000000 0.000000 0.000000 0.000000 NONE 0 0 0 0 1 0 0 0 0 0 0 0 0
