#	Name:			PISM01134
#	Creating user name:	14062
#	Creation time:		Sat Apr 06 23:30:40 2019

#	Modifying user name:	14062
#	Modification time:	Sat Apr 06 23:32:46 2019

@<TRIPOS>MOLECULE
PISM01134
   31    32     2     1     0
SMALL
GAST_HUCK


@<TRIPOS>ATOM
      1 S1        -20.7092    4.6336    0.9896 S.o2      1 BENZYL      0.0884 
      2 N2        -19.7760    5.7408    0.2378 N.am      1 BENZYL     -0.1565 
      3 C2        -20.0054    6.1197   -1.1062 C.ar      1 BENZYL      0.2036 
      4 N4        -20.9980    5.5325   -1.8044 N.ar      1 BENZYL     -0.2670 
      5 C4        -21.2487    5.9024   -3.0767 C.ar      1 BENZYL      0.0382 
      6 C5        -20.4600    6.8855   -3.6777 C.ar      1 BENZYL      0.1246 
      7 C6        -19.4384    7.4730   -2.9273 C.ar      1 BENZYL      0.0382 
      8 N8        -19.2234    7.0689   -1.6583 N.ar      1 BENZYL     -0.2670 
      9 O9        -20.4687    3.3454    0.3705 O.2       1 BENZYL     -0.1455 
     10 O10       -20.5338    4.7876    2.4199 O.2       1 BENZYL     -0.1455 
     11 O11       -20.6892    7.2704   -4.9995 O.3       1 BENZYL     -0.3190 
     12 C2        -22.6732    6.5466    0.7404 C.ar      2 BENZYL     -0.0465 
     13 C3        -22.3374    5.2029    0.5580 C.ar      2 BENZYL      0.1015 
     14 C4        -23.2912    4.3170    0.0506 C.ar      2 BENZYL     -0.0465 
     15 C5        -24.5622    4.7800   -0.3027 C.ar      2 BENZYL     -0.0429 
     16 C6        -24.8978    6.1303   -0.1434 C.ar      2 BENZYL      0.0353 
     17 C7        -23.9439    7.0090    0.3855 C.ar      2 BENZYL     -0.0429 
     18 C18       -19.8493    6.5959   -5.9502 C.3       1 BENZYL      0.0584 
     19 N19       -26.1278    6.5801   -0.4959 N.pl3     2 BENZYL     -0.3369 
     20 H1        -19.0050    6.1427    0.7268 H         1 BENZYL      0.2255 
     21 H2        -22.0575    5.4384   -3.6290 H         1 BENZYL      0.0814 
     22 H3        -18.8209    8.2507   -3.3617 H         1 BENZYL      0.0814 
     23 H4        -21.9421    7.2315    1.1572 H         2 BENZYL      0.0602 
     24 H5        -23.0435    3.2679   -0.0715 H         2 BENZYL      0.0602 
     25 H6        -25.2878    4.0796   -0.7034 H         2 BENZYL      0.0515 
     26 H7        -24.1830    8.0582    0.5246 H         2 BENZYL      0.0515 
     27 H8        -20.0085    5.5068   -5.9092 H         1 BENZYL      0.0575 
     28 H9        -18.7865    6.8164   -5.7641 H         1 BENZYL      0.0575 
     29 H10       -20.1119    6.9524   -6.9570 H         1 BENZYL      0.0575 
     30 H11       -26.3758    7.5746   -0.3834 H         2 BENZYL      0.1719 
     31 H12       -26.8315    5.9348   -0.8847 H         2 BENZYL      0.1719 
@<TRIPOS>BOND
     1    2    3 1    
     2    3    4 ar   
     3    3    8 ar   
     4    8    7 ar   
     5    7    6 ar   
     6    6    5 ar   
     7    5    4 ar   
     8    2    1 1    
     9    1    9 2    
    10    1   10 2    
    11    1   13 1    
    12   12   13 ar   
    13   12   17 ar   
    14   17   16 ar   
    15   16   15 ar   
    16   15   14 ar   
    17   14   13 ar   
    18    6   11 1    
    19   11   18 1    
    20   16   19 1    
    21    2   20 1    
    22    5   21 1    
    23    7   22 1    
    24   12   23 1    
    25   14   24 1    
    26   15   25 1    
    27   17   26 1    
    28   18   27 1    
    29   18   28 1    
    30   18   29 1    
    31   19   30 1    
    32   19   31 1    
@<TRIPOS>SUBSTRUCTURE
     1 BENZYL      2 PERM              0 ****  ****    1 ROOT 
     2 BENZYL     12 PERM              0 ****  ****    1  
@<TRIPOS>NORMAL
@<TRIPOS>FF_PBC
FORCE_FIELD_SETUP_FEATURE Force Field Setup information
v1.0  0 0.000000 0.000000 0.000000 0.000000 0.000000 0.000000 NONE 0 0 0 0 1 0 0 0 0 0 0 0 0
