#	Name:			PISM01197
#	Creating user name:	14062
#	Creation time:		Sat Apr 06 23:59:33 2019

#	Modifying user name:	14062
#	Modification time:	Sun Apr 07 00:02:12 2019

@<TRIPOS>MOLECULE
PISM01197
   61    62     1     2     0
SMALL
GAST_HUCK


@<TRIPOS>ATOM
      1 C1        -20.3736    4.0969   -6.6113 C.ar      1 <1>        -0.0288 
      2 C2        -19.0092    4.1407   -6.9320 C.ar      1 <1>         0.1188 
      3 C3        -18.1762    4.9558   -6.1642 C.ar      1 <1>         0.0462 
      4 C4        -18.6780    5.7276   -5.1124 C.ar      1 <1>        -0.0547 
      5 C5        -20.0413    5.6831   -4.8100 C.ar      1 <1>        -0.0683 
      6 C6        -20.8887    4.8678   -5.5644 C.ar      1 <1>        -0.0673 
      7 N7        -18.5042    3.4062   -7.9607 N.pl3     1 <1>        -0.1218 
      8 C8        -17.2154    3.3224   -8.2275 C.2       1 <1>         0.0919 
      9 C9        -16.2635    3.9977   -7.5495 C.2       1 <1>         0.0088 
     10 C10       -16.7149    4.9593   -6.5268 C.2       1 <1>         0.0983 
     11 O11       -15.9655    5.7582   -5.9898 O.2       1 <1>        -0.4307 
     12 C12       -16.8958    2.3855   -9.3833 C.3       1 <1>         0.0008 
     13 O13       -19.4126    2.6736   -8.7543 O.3       1 <1>        -0.2454 
     14 C14       -14.7815    3.7974   -7.8252 C.3       1 <1>        -0.0301 
     15 C15       -13.7911    4.3154   -6.8043 C.2       1 <1>        -0.1062 
     16 C16       -12.5786    4.8138   -7.0987 C.2       1 <1>        -0.0822 
     17 C17       -12.0213    4.8545   -8.5068 C.3       1 <1>        -0.0403 
     18 C18       -11.6777    5.3707   -6.0136 C.3       1 <1>        -0.0254 
     19 C19       -10.7275    4.2738   -5.4658 C.3       1 <1>        -0.0388 
     20 C20        -9.6865    4.9026   -4.5648 C.2       1 <1>        -0.1070 
     21 C21        -8.3547    4.7761   -4.6924 C.2       1 <1>        -0.0827 
     22 C22        -7.7114    3.9309   -5.7711 C.3       1 <1>        -0.0402 
     23 C23        -7.4074    5.4858   -3.7434 C.3       1 <1>        -0.0254 
     24 C24        -6.8714    4.5039   -2.6677 C.3       1 <1>        -0.0388 
     25 C25        -5.8680    5.1955   -1.7705 C.2       1 <1>        -0.1074 
     26 C26        -4.7394    4.6437   -1.2955 C.2       1 <1>        -0.0870 
     27 C27        -4.3480    3.2089   -1.5704 C.3       1 <1>        -0.0406 
     28 C28        -3.7730    5.4367   -0.4421 C.3       1 <1>        -0.0406 
     29 H1        -21.0553    3.4615   -7.1662 H         1 <1>         0.0552 
     30 H2        -18.0116    6.3573   -4.5312 H         1 <1>         0.0632 
     31 H3        -20.4392    6.2777   -3.9934 H         1 <1>         0.0531 
     32 H4        -21.9501    4.8331   -5.3346 H         1 <1>         0.0618 
     33 H5        -15.8449    2.3346   -9.6914 H         1 <1>         0.0452 
     34 H6        -17.4527    2.7088  -10.2751 H         1 <1>         0.0452 
     35 H7        -17.2146    1.3665   -9.1172 H         1 <1>         0.0452 
     36 H8        -19.8186    3.2245   -9.4173 H         1 <1>         0.2583 
     37 H9        -14.5978    4.2450   -8.8122 H         1 <1>         0.0397 
     38 H10       -14.5605    2.7199   -7.8522 H         1 <1>         0.0397 
     39 H11       -14.0803    4.2623   -5.7540 H         1 <1>         0.0249 
     40 H12       -10.9224    4.9117   -8.5017 H         1 <1>         0.0375 
     41 H13       -12.4129    5.7410   -9.0280 H         1 <1>         0.0375 
     42 H14       -12.2882    3.9495   -9.0723 H         1 <1>         0.0375 
     43 H15       -12.2759    5.7818   -5.1840 H         1 <1>         0.0425 
     44 H16       -11.0869    6.2052   -6.4238 H         1 <1>         0.0425 
     45 H17       -10.2818    3.7383   -6.3148 H         1 <1>         0.0361 
     46 H18       -11.3114    3.5441   -4.8823 H         1 <1>         0.0361 
     47 H19       -10.0828    5.5087   -3.7489 H         1 <1>         0.0244 
     48 H20        -6.6159    3.8892   -5.6758 H         1 <1>         0.0375 
     49 H21        -7.9458    4.3514   -6.7604 H         1 <1>         0.0375 
     50 H22        -8.0885    2.8988   -5.7116 H         1 <1>         0.0375 
     51 H23        -7.9123    6.3258   -3.2388 H         1 <1>         0.0425 
     52 H24        -6.5661    5.9152   -4.3118 H         1 <1>         0.0425 
     53 H25        -6.4306    3.6374   -3.1819 H         1 <1>         0.0361 
     54 H26        -7.7129    4.1488   -2.0517 H         1 <1>         0.0361 
     55 H27        -6.1011    6.2261   -1.5002 H         1 <1>         0.0244 
     56 H28        -3.5761    2.8627   -0.8668 H         1 <1>         0.0375 
     57 H29        -3.9462    3.1288   -2.5913 H         1 <1>         0.0375 
     58 H30        -5.2117    2.5361   -1.4634 H         1 <1>         0.0375 
     59 H31        -4.0635    6.4923   -0.3288 H         1 <1>         0.0375 
     60 H32        -2.7743    5.4078   -0.9034 H         1 <1>         0.0375 
     61 H33        -3.7147    4.9883    0.5609 H         1 <1>         0.0375 
@<TRIPOS>BOND
     1    2    1 ar   
     2    2    3 ar   
     3    3    4 ar   
     4    4    5 ar   
     5    5    6 ar   
     6    1    6 ar   
     7    2    7 1    
     8    7    8 1    
     9    8    9 2    
    10    9   10 1    
    11   10    3 1    
    12   10   11 2    
    13    8   12 1    
    14    7   13 1    
    15    9   14 1    
    16   14   15 1    
    17   15   16 2    
    18   16   17 1    
    19   16   18 1    
    20   18   19 1    
    21   19   20 1    
    22   20   21 2    
    23   21   22 1    
    24   21   23 1    
    25   23   24 1    
    26   24   25 1    
    27   25   26 2    
    28   26   27 1    
    29   26   28 1    
    30    1   29 1    
    31    4   30 1    
    32    5   31 1    
    33    6   32 1    
    34   12   33 1    
    35   12   34 1    
    36   12   35 1    
    37   13   36 1    
    38   14   37 1    
    39   14   38 1    
    40   15   39 1    
    41   17   40 1    
    42   17   41 1    
    43   17   42 1    
    44   18   43 1    
    45   18   44 1    
    46   19   45 1    
    47   19   46 1    
    48   20   47 1    
    49   22   48 1    
    50   22   49 1    
    51   22   50 1    
    52   23   51 1    
    53   23   52 1    
    54   24   53 1    
    55   24   54 1    
    56   25   55 1    
    57   27   56 1    
    58   27   57 1    
    59   27   58 1    
    60   28   59 1    
    61   28   60 1    
    62   28   61 1    
@<TRIPOS>SUBSTRUCTURE
     1 ****        2 TEMP              0 ****  ****    0 ROOT 
@<TRIPOS>NORMAL
@<TRIPOS>FF_PBC
FORCE_FIELD_SETUP_FEATURE Force Field Setup information
v1.0  0 0.000000 0.000000 0.000000 0.000000 0.000000 0.000000 NONE 0 0 0 0 1 0 0 0 0 0 0 0 0
@<TRIPOS>RENDERING_ATTRS
ANTIALIASED_LINES 
*
