#	Name:			PISM00276
#	Creating user name:	baoopengkun
#	Creation time:		Sun Mar 31 17:37:08 2019

#	Modifying user name:	baoopengkun
#	Modification time:	Sun Mar 31 17:42:56 2019

@<TRIPOS>MOLECULE
PISM00276
   51    52     1     1     0
SMALL
GAST_HUCK


@<TRIPOS>ATOM
      1 C1         -5.8424    4.7018   -4.3448 C.ar      1 <1>        -0.0795 
      2 C2         -4.5247    5.1181   -4.5583 C.ar      1 <1>        -0.0432 
      3 C3         -3.5236    4.1811   -4.8463 C.ar      1 <1>         0.1176 
      4 C4         -3.8601    2.8223   -4.8797 C.ar      1 <1>         0.1167 
      5 C5         -5.1754    2.4105   -4.6524 C.ar      1 <1>        -0.0403 
      6 C6         -6.1857    3.3477   -4.4100 C.ar      1 <1>        -0.0595 
      7 O7         -2.1958    4.5632   -5.1018 O.3       1 <1>        -0.3259 
      8 C8         -1.7862    5.9401   -5.1377 C.3       1 <1>         0.0567 
      9 O9         -2.8828    1.8582   -5.1416 O.3       1 <1>        -0.3256 
     10 C10        -2.0010    1.5989   -4.0378 C.3       1 <1>         0.0568 
     11 C11        -7.6362    2.9562   -4.2106 C.2       1 <1>        -0.0763 
     12 C12        -8.1874    1.8562   -4.7415 C.2       1 <1>        -0.0657 
     13 C13        -9.6372    1.4858   -4.5372 C.3       1 <1>         0.0327 
     14 N14       -10.4143    1.7026   -5.7844 N.3       1 <1>        -0.2597 
     15 C15       -10.4900    3.1255   -6.2126 C.3       1 <1>         0.1047 
     16 C16       -10.9818    4.0503   -5.1296 C.2       1 <1>         0.2482 
     17 O17       -12.0691    3.8811   -4.5995 O.2       1 <1>        -0.3690 
     18 O18       -10.1524    5.0521   -4.8000 O.3       1 <1>        -0.2792 
     19 C19       -10.6471    5.8848   -3.7338 C.3       1 <1>         0.0658 
     20 C20       -10.1091    0.7710   -6.9001 C.3       1 <1>         0.0376 
     21 C21       -10.2049   -0.6934   -6.4527 C.ar      1 <1>        -0.0286 
     22 C22        -9.1135   -1.5636   -6.5627 C.ar      1 <1>        -0.0591 
     23 C23        -9.2230   -2.8876   -6.1266 C.ar      1 <1>        -0.0685 
     24 C24       -10.4282   -3.3533   -5.5938 C.ar      1 <1>        -0.0687 
     25 C25       -11.5223   -2.4901   -5.4909 C.ar      1 <1>        -0.0685 
     26 C26       -11.4084   -1.1637   -5.9174 C.ar      1 <1>        -0.0591 
     27 H27       -10.5142   -4.3837   -5.2610 H         1 <1>         0.0559 
     28 H1         -6.6058    5.4435   -4.1306 H         1 <1>         0.0472 
     29 H2         -4.3074    6.1775   -4.4952 H         1 <1>         0.0508 
     30 H3         -5.3879    1.3485   -4.6595 H         1 <1>         0.0473 
     31 H4         -0.7140    5.9633   -5.3827 H         1 <1>         0.0573 
     32 H5         -1.9266    6.4222   -4.1581 H         1 <1>         0.0573 
     33 H6         -2.3317    6.4951   -5.9165 H         1 <1>         0.0573 
     34 H7         -1.2841    0.8233   -4.3448 H         1 <1>         0.0573 
     35 H8         -2.5674    1.2319   -3.1679 H         1 <1>         0.0573 
     36 H9         -1.4396    2.5014   -3.7515 H         1 <1>         0.0573 
     37 H10        -8.2508    3.6255   -3.6093 H         1 <1>         0.0412 
     38 H11        -7.5977    1.1845   -5.3626 H         1 <1>         0.0691 
     39 H12       -10.0899    2.0704   -3.7214 H         1 <1>         0.0619 
     40 H13        -9.6880    0.4349   -4.2142 H         1 <1>         0.0619 
     41 H14       -11.2091    3.2333   -7.0382 H         1 <1>         0.0688 
     42 H15        -9.5052    3.4655   -6.5699 H         1 <1>         0.0688 
     43 H16       -11.5972    6.3704   -4.0107 H         1 <1>         0.0577 
     44 H17        -9.8980    6.6679   -3.5436 H         1 <1>         0.0577 
     45 H18       -10.7859    5.3034   -2.8075 H         1 <1>         0.0577 
     46 H19        -9.1183    0.9944   -7.3244 H         1 <1>         0.0593 
     47 H20       -10.8524    0.8945   -7.7033 H         1 <1>         0.0593 
     48 H21        -8.1751   -1.2188   -6.9853 H         1 <1>         0.0557 
     49 H22        -8.3704   -3.5558   -6.2016 H         1 <1>         0.0599 
     50 H23       -12.4600   -2.8502   -5.0794 H         1 <1>         0.0599 
     51 H24       -12.2593   -0.4949   -5.8312 H         1 <1>         0.0557 
@<TRIPOS>BOND
     1    2    1 ar   
     2    2    3 ar   
     3    3    4 ar   
     4    4    5 ar   
     5    5    6 ar   
     6    1    6 ar   
     7    3    7 1    
     8    7    8 1    
     9    4    9 1    
    10    9   10 1    
    11    6   11 1    
    12   11   12 2    
    13   12   13 1    
    14   13   14 1    
    15   14   15 1    
    16   15   16 1    
    17   16   17 2    
    18   16   18 1    
    19   18   19 1    
    20   14   20 1    
    21   20   21 1    
    22   21   22 ar   
    23   22   23 ar   
    24   23   24 ar   
    25   24   25 ar   
    26   25   26 ar   
    27   21   26 ar   
    28   24   27 1    
    29    1   28 1    
    30    2   29 1    
    31    5   30 1    
    32    8   31 1    
    33    8   32 1    
    34    8   33 1    
    35   10   34 1    
    36   10   35 1    
    37   10   36 1    
    38   11   37 1    
    39   12   38 1    
    40   13   39 1    
    41   13   40 1    
    42   15   41 1    
    43   15   42 1    
    44   19   43 1    
    45   19   44 1    
    46   19   45 1    
    47   20   46 1    
    48   20   47 1    
    49   22   48 1    
    50   23   49 1    
    51   25   50 1    
    52   26   51 1    
@<TRIPOS>SUBSTRUCTURE
     1 ****        2 TEMP              0 ****  ****    0 ROOT 
@<TRIPOS>NORMAL
@<TRIPOS>FF_PBC
FORCE_FIELD_SETUP_FEATURE Force Field Setup information
v1.0  0 0.000000 0.000000 0.000000 0.000000 0.000000 0.000000 NONE 0 0 0 0 1 0 0 0 0 0 0 0 0
