#	Name:			PISM00392
#	Creating user name:	baoopengkun
#	Creation time:		Sun Mar 31 17:23:15 2019

#	Modifying user name:	baoopengkun
#	Modification time:	Sun Mar 31 17:25:35 2019

@<TRIPOS>MOLECULE
PISM00392
   50    52     1     1     0
SMALL
GAST_HUCK


@<TRIPOS>ATOM
      1 C1         -3.0402    6.2278    1.0250 C.3       1 <1>        -0.0562 
      2 C2         -4.2284    5.2857    0.6623 C.3       1 <1>         0.0095 
      3 C3         -4.1833    4.9936   -0.8660 C.3       1 <1>        -0.0562 
      4 C4         -5.6137    5.9199    1.0054 C.3       1 <1>        -0.0181 
      5 C5         -5.8768    6.0990    2.5250 C.3       1 <1>         0.0586 
      6 C6         -5.9056    4.7282    3.2423 C.3       1 <1>         0.0058 
      7 C7         -4.7110    3.8291    2.8397 C.3       1 <1>         0.1104 
      8 C8         -4.0269    3.9382    1.4032 C.3       1 <1>         0.1596 
      9 O9         -4.9005    6.9388    3.1624 O.3       1 <1>        -0.3917 
     10 C10        -4.2518    2.7654    3.8677 C.3       1 <1>        -0.0321 
     11 C11        -2.7116    3.3117    1.3529 C.1       1 <1>        -0.0720 
     12 C12        -1.6214    2.8042    1.3316 C.1       1 <1>        -0.0831 
     13 C13        -0.3126    2.2032    1.3328 C.2       1 <1>        -0.0118 
     14 C14         0.1307    1.5116    0.0678 C.3       1 <1>        -0.0336 
     15 C15         0.4558    2.2731    2.4308 C.2       1 <1>        -0.0649 
     16 C16         0.0523    2.9664    3.7114 C.3       1 <1>         0.0291 
     17 S17         1.2068    4.3550    3.9334 S.3       1 <1>        -0.0895 
     18 C18         0.3387    5.2052    5.2259 C.ar      1 <1>         0.0175 
     19 C19        -0.4305    6.3325    4.9229 C.ar      1 <1>        -0.0496 
     20 C20        -1.1155    7.0065    5.9381 C.ar      1 <1>        -0.0678 
     21 C21        -1.0387    6.5469    7.2561 C.ar      1 <1>        -0.0687 
     22 C22        -0.2768    5.4139    7.5583 C.ar      1 <1>        -0.0678 
     23 C23         0.4124    4.7435    6.5428 C.ar      1 <1>        -0.0496 
     24 O24        -5.1285    3.1294    1.6854 O.3       1 <1>        -0.3486 
     25 H1         -3.2308    7.2510    0.6686 H         1 <1>         0.0236 
     26 H2         -2.1071    5.8765    0.5589 H         1 <1>         0.0236 
     27 H3         -2.8631    6.2526    2.1097 H         1 <1>         0.0236 
     28 H4         -4.9922    4.3025   -1.1494 H         1 <1>         0.0236 
     29 H5         -3.2276    4.5276   -1.1512 H         1 <1>         0.0236 
     30 H6         -4.3003    5.9261   -1.4388 H         1 <1>         0.0236 
     31 H7         -6.4166    5.2778    0.6066 H         1 <1>         0.0296 
     32 H8         -5.6997    6.9009    0.5109 H         1 <1>         0.0296 
     33 H9         -6.8684    6.5688    2.6687 H         1 <1>         0.0594 
     34 H10        -6.8463    4.1972    3.0201 H         1 <1>         0.0319 
     35 H11        -5.8708    4.9057    4.3283 H         1 <1>         0.0319 
     36 H12        -4.8740    7.8205    2.8021 H         1 <1>         0.2098 
     37 H13        -3.5376    2.0436    3.4445 H         1 <1>         0.0259 
     38 H14        -5.1290    2.2111    4.2344 H         1 <1>         0.0259 
     39 H15        -3.7737    3.2818    4.7132 H         1 <1>         0.0259 
     40 H16        -0.5757    0.7016   -0.1669 H         1 <1>         0.0355 
     41 H17         1.1417    1.0837    0.1458 H         1 <1>         0.0355 
     42 H18         0.1226    2.2379   -0.7587 H         1 <1>         0.0355 
     43 H19         1.4433    1.8094    2.4235 H         1 <1>         0.0539 
     44 H20         0.1458    2.2744    4.5621 H         1 <1>         0.0549 
     45 H21        -0.9730    3.3634    3.6980 H         1 <1>         0.0549 
     46 H22        -0.4949    6.6842    3.8982 H         1 <1>         0.0565 
     47 H23        -1.7060    7.8867    5.7026 H         1 <1>         0.0600 
     48 H24        -1.5699    7.0696    8.0449 H         1 <1>         0.0559 
     49 H25        -0.2199    5.0558    8.5812 H         1 <1>         0.0600 
     50 H26         1.0040    3.8651    6.7776 H         1 <1>         0.0565 
@<TRIPOS>BOND
     1    2    1 1    
     2    2    3 1    
     3    2    4 1    
     4    4    5 1    
     5    5    6 1    
     6    6    7 1    
     7    7    8 1    
     8    8    2 1    
     9    5    9 1    
    10    7   10 1    
    11    8   11 1    
    12   11   12 3    
    13   12   13 1    
    14   13   14 1    
    15   13   15 2    
    16   15   16 1    
    17   16   17 1    
    18   17   18 1    
    19   18   19 ar   
    20   19   20 ar   
    21   20   21 ar   
    22   21   22 ar   
    23   22   23 ar   
    24   18   23 ar   
    25    8   24 1    
    26    7   24 1    
    27    1   25 1    
    28    1   26 1    
    29    1   27 1    
    30    3   28 1    
    31    3   29 1    
    32    3   30 1    
    33    4   31 1    
    34    4   32 1    
    35    5   33 1    
    36    6   34 1    
    37    6   35 1    
    38    9   36 1    
    39   10   37 1    
    40   10   38 1    
    41   10   39 1    
    42   14   40 1    
    43   14   41 1    
    44   14   42 1    
    45   15   43 1    
    46   16   44 1    
    47   16   45 1    
    48   19   46 1    
    49   20   47 1    
    50   21   48 1    
    51   22   49 1    
    52   23   50 1    
@<TRIPOS>SUBSTRUCTURE
     1 ****        2 TEMP              0 ****  ****    0 ROOT 
@<TRIPOS>NORMAL
@<TRIPOS>FF_PBC
FORCE_FIELD_SETUP_FEATURE Force Field Setup information
v1.0  0 0.000000 0.000000 0.000000 0.000000 0.000000 0.000000 NONE 0 0 0 0 1 0 0 0 0 0 0 0 0
