#	Name:			PISM00835.1
#	Creating user name:	baoopengkun
#	Creation time:		Fri Nov 30 19:06:01 2018

#	Modifying user name:	baoopengkun
#	Modification time:	Fri Nov 30 19:08:40 2018

@<TRIPOS>MOLECULE
PISM00835.1
   31    32     1     2     0
SMALL
GAST_HUCK


@<TRIPOS>ATOM
      1 C1        -17.7787    0.1458   11.6160 C.ar      1 <1>        -0.0351 
      2 C2        -18.4131   -1.0694   11.3457 C.ar      1 <1>        -0.0352 
      3 C3        -17.6457   -2.2329   11.2487 C.ar      1 <1>         0.0095 
      4 N4        -16.3063   -2.1748   11.3945 N.ar      1 <1>        -0.2976 
      5 C5        -15.6683   -1.0046   11.6045 C.ar      1 <1>         0.0188 
      6 C6        -16.3895    0.1831   11.7730 C.ar      1 <1>         0.0235 
      7 C7        -15.7064    1.4942   12.1126 C.2       1 <1>         0.0784 
      8 C8        -16.1076    2.7581   11.3957 C.3       1 <1>         0.0419 
      9 N9        -17.2343    3.3974   12.1091 N.3       1 <1>        -0.3188 
     10 N10       -14.8021    1.6180   13.0061 N.2       1 <1>        -0.1559 
     11 O11       -14.5981    0.3816   13.6458 O.3       1 <1>        -0.1963 
     12 C12       -15.3757    0.2422   14.8407 C.3       1 <1>         0.2541 
     13 C13       -15.0768   -1.1114   15.4341 C.2       1 <1>         0.0005 
     14 C14       -14.5140   -0.9778   16.6337 C.2       1 <1>         0.0293 
     15 C15       -14.4592    0.4666   16.8279 C.2       1 <1>         0.2496 
     16 O16       -14.9521    1.1968   15.8352 O.3       1 <1>        -0.2290 
     17 C17       -14.0447   -2.0477   17.5812 C.3       1 <1>        -0.0323 
     18 O18       -13.9984    0.9727   17.8365 O.2       1 <1>        -0.3691 
     19 H1        -18.3682    1.0521   11.7075 H         1 <1>         0.0732 
     20 H2        -19.4899   -1.1104   11.2142 H         1 <1>         0.0704 
     21 H3        -18.1202   -3.1892   11.0550 H         1 <1>         0.0808 
     22 H4        -14.5842   -1.0010   11.6321 H         1 <1>         0.0824 
     23 H5        -16.4142    2.5036   10.3682 H         1 <1>         0.0589 
     24 H6        -15.2430    3.4410   11.3346 H         1 <1>         0.0589 
     25 H7        -17.5503    4.2979   11.5978 H         1 <1>         0.1206 
     26 H8        -16.9502    3.6420   13.1249 H         1 <1>         0.1206 
     27 H9        -16.4521    0.3527   14.6332 H         1 <1>         0.1227 
     28 H10       -15.2904   -2.0570   14.9369 H         1 <1>         0.0707 
     29 H11       -14.3074   -3.0494   17.2091 H         1 <1>         0.0347 
     30 H12       -14.5136   -1.8965   18.5649 H         1 <1>         0.0347 
     31 H13       -12.9521   -1.9808   17.6916 H         1 <1>         0.0347 
@<TRIPOS>BOND
     1    2    1 ar   
     2    2    3 ar   
     3    3    4 ar   
     4    4    5 ar   
     5    5    6 ar   
     6    1    6 ar   
     7    6    7 1    
     8    7    8 1    
     9    8    9 1    
    10    7   10 2    
    11   10   11 1    
    12   11   12 1    
    13   12   13 1    
    14   13   14 2    
    15   14   15 1    
    16   15   16 1    
    17   12   16 1    
    18   14   17 1    
    19   15   18 2    
    20    1   19 1    
    21    2   20 1    
    22    3   21 1    
    23    5   22 1    
    24    8   23 1    
    25    8   24 1    
    26    9   25 1    
    27    9   26 1    
    28   12   27 1    
    29   13   28 1    
    30   17   29 1    
    31   17   30 1    
    32   17   31 1    
@<TRIPOS>SUBSTRUCTURE
     1 ****        2 TEMP              0 ****  ****    0 ROOT 
@<TRIPOS>NORMAL
@<TRIPOS>FF_PBC
FORCE_FIELD_SETUP_FEATURE Force Field Setup information
v1.0  0 0.000000 0.000000 0.000000 0.000000 0.000000 0.000000 NONE 0 0 0 0 1 0 0 0 0 0 0 0 0
@<TRIPOS>RENDERING_ATTRS
ANTIALIASED_LINES 
*
