#	Name:			PISM00936
#	Creating user name:	baoopengkun
#	Creation time:		Wed Dec 12 22:41:34 2018

#	Modifying user name:	baoopengkun
#	Modification time:	Wed Dec 12 23:02:22 2018

@<TRIPOS>MOLECULE
PISM00936
   26    26     1     1     0
SMALL
GAST_HUCK


@<TRIPOS>ATOM
      1 C1          3.9996   -5.9375    3.7968 C.3       1 <1>         0.0211 
      2 C2          3.2722   -6.2758    5.0690 C.2       1 <1>         0.1061 
      3 C3          3.5179   -7.2477    5.9454 C.2       1 <1>         0.0013 
      4 C4          2.5301   -7.2234    7.0855 C.3       1 <1>         0.1774 
      5 O5          1.6625   -6.1096    6.7896 O.3       1 <1>        -0.3025 
      6 C6          2.1112   -5.6055    5.6454 C.2       1 <1>         0.3139 
      7 C7          4.6048   -8.2925    5.9124 C.3       1 <1>        -0.0318 
      8 C8          3.2193   -7.0054    8.3508 C.1       1 <1>        -0.1217 
      9 O9          1.5869   -4.6431    5.1107 O.2       1 <1>        -0.3160 
     10 C10         1.7628   -8.4620    7.1141 C.1       1 <1>        -0.1217 
     11 C11         1.1323   -9.4869    7.1351 C.1       1 <1>        -0.1184 
     12 C12         0.3689  -10.7278    7.1607 C.3       1 <1>        -0.0038 
     13 C13         3.7925   -6.8274    9.3941 C.1       1 <1>        -0.1184 
     14 C14         4.4863   -6.6128   10.6573 C.3       1 <1>        -0.0038 
     15 H1          5.0483   -5.6929    4.0214 H         1 <1>         0.0617 
     16 H2          3.5300   -5.0713    3.3071 H         1 <1>         0.0617 
     17 H3          3.9654   -6.7956    3.1092 H         1 <1>         0.0617 
     18 H4          4.1543   -9.2962    5.9006 H         1 <1>         0.0388 
     19 H5          5.2375   -8.1972    6.8075 H         1 <1>         0.0388 
     20 H6          5.2404   -8.1835    5.0215 H         1 <1>         0.0388 
     21 H7          0.4566  -11.2313    6.1867 H         1 <1>         0.0361 
     22 H8         -0.6881  -10.5020    7.3642 H         1 <1>         0.0361 
     23 H9          0.7634  -11.3838    7.9506 H         1 <1>         0.0361 
     24 H10         4.7112   -7.5847   11.1205 H         1 <1>         0.0361 
     25 H11         3.8460   -6.0241   11.3306 H         1 <1>         0.0361 
     26 H12         5.4235   -6.0681   10.4715 H         1 <1>         0.0361 
@<TRIPOS>BOND
     1    2    1 1    
     2    2    3 2    
     3    3    4 1    
     4    4    5 1    
     5    5    6 1    
     6    2    6 1    
     7    3    7 1    
     8    4    8 1    
     9    6    9 2    
    10    4   10 1    
    11   10   11 3    
    12   11   12 1    
    13    8   13 3    
    14   13   14 1    
    15    1   15 1    
    16    1   16 1    
    17    1   17 1    
    18    7   18 1    
    19    7   19 1    
    20    7   20 1    
    21   12   21 1    
    22   12   22 1    
    23   12   23 1    
    24   14   24 1    
    25   14   25 1    
    26   14   26 1    
@<TRIPOS>SUBSTRUCTURE
     1 ****        2 TEMP              0 ****  ****    0 ROOT 
@<TRIPOS>NORMAL
@<TRIPOS>FF_PBC
FORCE_FIELD_SETUP_FEATURE Force Field Setup information
v1.0  0 0.000000 0.000000 0.000000 0.000000 0.000000 0.000000 NONE 0 0 0 0 1 0 0 0 0 0 0 0 0
