#	Name:			PISM00453
#	Creating user name:	baoopengkun
#	Creation time:		Wed Feb 27 21:35:48 2019

#	Modifying user name:	baoopengkun
#	Modification time:	Wed Feb 27 21:37:41 2019

@<TRIPOS>MOLECULE
PISM00453
   51    54     1     1     0
SMALL
GAST_HUCK


@<TRIPOS>ATOM
      1 Cl1        11.0062    5.3671  -20.4066 Cl        1 <1>        -0.0771 
      2 C2         12.3520    5.1365  -19.3090 C.ar      1 <1>         0.0330 
      3 C3         12.1171    4.8106  -17.9711 C.ar      1 <1>        -0.0546 
      4 C4         13.1896    4.6175  -17.0957 C.ar      1 <1>        -0.0591 
      5 C5         14.5110    4.7546  -17.5430 C.ar      1 <1>        -0.0350 
      6 C6         14.7357    5.0843  -18.8869 C.ar      1 <1>        -0.0591 
      7 C7         13.6640    5.2783  -19.7642 C.ar      1 <1>        -0.0546 
      8 C8         15.6902    4.5392  -16.5743 C.3       1 <1>         0.0217 
      9 C9         16.5729    5.8030  -16.4556 C.3       1 <1>         0.0263 
     10 C10        17.7307    5.4925  -15.5503 C.2       1 <1>         0.0923 
     11 O11        18.1863    6.3798  -14.8489 O.2       1 <1>        -0.4144 
     12 C12        18.3243    4.1421  -15.5017 C.2       1 <1>         0.0195 
     13 C13        17.7904    3.1228  -16.1884 C.2       1 <1>         0.0661 
     14 C14        16.5348    3.3177  -17.0171 C.3       1 <1>         0.0263 
     15 N15        18.3297    1.9274  -16.1938 N.pl3     1 <1>        -0.2571 
     16 C16        19.4214    1.6248  -15.5291 C.2       1 <1>         0.0627 
     17 C17        20.0579    2.5218  -14.7567 C.2       1 <1>         0.0473 
     18 C18        19.5628    3.9388  -14.6759 C.3       1 <1>         0.0268 
     19 C19        19.9309    0.2024  -15.6772 C.3       1 <1>        -0.0001 
     20 C20        21.2454    2.2033  -13.9389 C.2       1 <1>         0.2185 
     21 O21        22.0906    3.0682  -13.7744 O.2       1 <1>        -0.3920 
     22 O22        21.3694    0.9933  -13.3773 O.3       1 <1>        -0.2911 
     23 C23        22.5848    0.8274  -12.6199 C.3       1 <1>         0.0629 
     24 C24        19.2698    4.2448  -13.1999 C.ar      1 <1>        -0.0047 
     25 C25        19.9257    5.2810  -12.5231 C.ar      1 <1>         0.1329 
     26 C26        19.6416    5.5362  -11.1784 C.ar      1 <1>        -0.0361 
     27 C27        18.7002    4.7582  -10.4990 C.ar      1 <1>        -0.0718 
     28 C28        18.0517    3.7153  -11.1662 C.ar      1 <1>        -0.0738 
     29 C29        18.3311    3.4659  -12.5128 C.ar      1 <1>        -0.0622 
     30 F30        20.8287    6.0357  -13.1460 F         1 <1>        -0.1897 
     31 H1         11.0972    4.7078  -17.6152 H         1 <1>         0.0606 
     32 H2         12.9826    4.3577  -16.0626 H         1 <1>         0.0557 
     33 H3         15.7439    5.1928  -19.2703 H         1 <1>         0.0557 
     34 H4         13.8496    5.5394  -20.8008 H         1 <1>         0.0606 
     35 H5         15.3115    4.3247  -15.5591 H         1 <1>         0.0515 
     36 H6         15.9735    6.6282  -16.0365 H         1 <1>         0.0495 
     37 H7         16.9852    6.1194  -17.4231 H         1 <1>         0.0495 
     38 H8         15.8721    2.4378  -16.9515 H         1 <1>         0.0528 
     39 H9         16.8731    3.4189  -18.0591 H         1 <1>         0.0528 
     40 H10        17.8709    1.1902  -16.7549 H         1 <1>         0.2223 
     41 H11        20.3455    4.5997  -15.0778 H         1 <1>         0.0522 
     42 H12        19.4492   -0.4224  -14.9121 H         1 <1>         0.0465 
     43 H13        21.0233    0.1347  -15.5726 H         1 <1>         0.0465 
     44 H14        19.7032   -0.2147  -16.6690 H         1 <1>         0.0465 
     45 H15        22.6317    1.5354  -11.7774 H         1 <1>         0.0573 
     46 H16        23.4702    0.9632  -13.2607 H         1 <1>         0.0573 
     47 H17        22.6015   -0.1948  -12.2149 H         1 <1>         0.0573 
     48 H18        20.1565    6.3420  -10.6674 H         1 <1>         0.0581 
     49 H19        18.4757    4.9630   -9.4575 H         1 <1>         0.0538 
     50 H20        17.3292    3.1012  -10.6375 H         1 <1>         0.0561 
     51 H21        17.8174    2.6598  -13.0253 H         1 <1>         0.0537 
@<TRIPOS>BOND
     1    2    1 1    
     2    2    3 ar   
     3    3    4 ar   
     4    4    5 ar   
     5    5    6 ar   
     6    6    7 ar   
     7    2    7 ar   
     8    5    8 1    
     9    8    9 1    
    10    9   10 1    
    11   10   11 2    
    12   10   12 1    
    13   12   13 2    
    14   13   14 1    
    15    8   14 1    
    16   13   15 1    
    17   15   16 1    
    18   16   17 2    
    19   17   18 1    
    20   12   18 1    
    21   16   19 1    
    22   17   20 1    
    23   20   21 2    
    24   20   22 1    
    25   22   23 1    
    26   18   24 1    
    27   24   25 ar   
    28   25   26 ar   
    29   26   27 ar   
    30   27   28 ar   
    31   28   29 ar   
    32   24   29 ar   
    33   25   30 1    
    34    3   31 1    
    35    4   32 1    
    36    6   33 1    
    37    7   34 1    
    38    8   35 1    
    39    9   36 1    
    40    9   37 1    
    41   14   38 1    
    42   14   39 1    
    43   15   40 1    
    44   18   41 1    
    45   19   42 1    
    46   19   43 1    
    47   19   44 1    
    48   23   45 1    
    49   23   46 1    
    50   23   47 1    
    51   26   48 1    
    52   27   49 1    
    53   28   50 1    
    54   29   51 1    
@<TRIPOS>SUBSTRUCTURE
     1 ****        2 TEMP              0 ****  ****    0 ROOT 
@<TRIPOS>NORMAL
@<TRIPOS>FF_PBC
FORCE_FIELD_SETUP_FEATURE Force Field Setup information
v1.0  0 0.000000 0.000000 0.000000 0.000000 0.000000 0.000000 NONE 0 0 0 0 1 0 0 0 0 0 0 0 0
