#	Name:			PISM00445
#	Creating user name:	baoopengkun
#	Creation time:		Sun Mar 31 15:57:44 2019

#	Modifying user name:	baoopengkun
#	Modification time:	Sun Mar 31 15:59:49 2019

@<TRIPOS>MOLECULE
PISM00445
   46    45     1     1     0
SMALL
GAST_HUCK


@<TRIPOS>ATOM
      1 O1         -0.2126    4.0354   11.1060 O.3       1 <1>        -0.2927 
      2 C2         -0.8277    3.6913    9.9749 C.2       1 <1>         0.2312 
      3 O3         -1.8363    3.0038    9.9701 O.2       1 <1>        -0.3706 
      4 C4         -0.1943    4.2074    8.7096 C.3       1 <1>         0.0494 
      5 C5         -0.9726    3.7707    7.4394 C.3       1 <1>        -0.0239 
      6 C6         -0.3018    4.3140    6.1510 C.3       1 <1>         0.0113 
      7 C7         -1.0520    3.8908    4.9734 C.1       1 <1>        -0.1011 
      8 C8         -1.6711    3.5414    4.0023 C.1       1 <1>        -0.0894 
      9 C9         -2.4202    3.1185    2.8257 C.3       1 <1>         0.0705 
     10 C10        -1.7666    3.6306    1.6277 C.1       1 <1>        -0.0885 
     11 C11        -1.2254    4.0543    0.6396 C.1       1 <1>        -0.0885 
     12 C12        -0.5675    4.5690   -0.5548 C.3       1 <1>         0.0705 
     13 C13        -1.3402    4.2082   -1.7368 C.1       1 <1>        -0.0885 
     14 C14        -1.9755    3.9124   -2.7154 C.1       1 <1>        -0.0885 
     15 C15        -2.7412    3.5567   -3.9034 C.3       1 <1>         0.0705 
     16 C16        -2.0690    4.0893   -5.0818 C.1       1 <1>        -0.0894 
     17 C17        -1.5113    4.5302   -6.0529 C.1       1 <1>        -0.1013 
     18 C18        -0.8328    5.0651   -7.2288 C.3       1 <1>         0.0092 
     19 C19        -1.2152    4.2493   -8.4910 C.3       1 <1>        -0.0422 
     20 C20        -0.4966    4.7980   -9.7538 C.3       1 <1>        -0.0525 
     21 C21        -0.8813    3.9877  -11.0216 C.3       1 <1>        -0.0559 
     22 C22        -0.1555    4.5317  -12.2798 C.3       1 <1>        -0.0653 
     23 H1         -0.6648    3.6765   11.8618 H         1 <1>         0.2539 
     24 H2          0.8378    3.8264    8.6651 H         1 <1>         0.0518 
     25 H3         -0.1608    5.3065    8.7683 H         1 <1>         0.0518 
     26 H4         -2.0073    4.1483    7.4983 H         1 <1>         0.0300 
     27 H5         -1.0085    2.6691    7.3947 H         1 <1>         0.0300 
     28 H6          0.7268    3.9318    6.0580 H         1 <1>         0.0399 
     29 H7         -0.2732    5.4147    6.1624 H         1 <1>         0.0399 
     30 H8         -3.4451    3.5134    2.8818 H         1 <1>         0.0532 
     31 H9         -2.4508    2.0199    2.7859 H         1 <1>         0.0532 
     32 H10         0.4408    4.1367   -0.6319 H         1 <1>         0.0532 
     33 H11        -0.4930    5.6642   -0.4878 H         1 <1>         0.0532 
     34 H12        -3.7517    3.9850   -3.8317 H         1 <1>         0.0532 
     35 H13        -2.8096    2.4619   -3.9830 H         1 <1>         0.0532 
     36 H14         0.2525    5.0157   -7.0497 H         1 <1>         0.0397 
     37 H15        -1.1264    6.1200   -7.3451 H         1 <1>         0.0397 
     38 H16        -2.3072    4.2996   -8.6365 H         1 <1>         0.0274 
     39 H17        -0.9352    3.1937   -8.3375 H         1 <1>         0.0274 
     40 H18         0.5943    4.7434   -9.6040 H         1 <1>         0.0265 
     41 H19        -0.7728    5.8552   -9.9002 H         1 <1>         0.0265 
     42 H20        -1.9711    4.0464  -11.1806 H         1 <1>         0.0263 
     43 H21        -0.6100    2.9283  -10.8795 H         1 <1>         0.0263 
     44 H22         0.9362    4.4638  -12.1532 H         1 <1>         0.0230 
     45 H23        -0.4264    5.5846  -12.4549 H         1 <1>         0.0230 
     46 H24        -0.4422    3.9443  -13.1665 H         1 <1>         0.0230 
@<TRIPOS>BOND
     1    2    1 1    
     2    2    3 2    
     3    2    4 1    
     4    4    5 1    
     5    5    6 1    
     6    6    7 1    
     7    7    8 3    
     8    8    9 1    
     9    9   10 1    
    10   10   11 3    
    11   11   12 1    
    12   12   13 1    
    13   13   14 3    
    14   14   15 1    
    15   15   16 1    
    16   16   17 3    
    17   17   18 1    
    18   18   19 1    
    19   19   20 1    
    20   20   21 1    
    21   21   22 1    
    22    1   23 1    
    23    4   24 1    
    24    4   25 1    
    25    5   26 1    
    26    5   27 1    
    27    6   28 1    
    28    6   29 1    
    29    9   30 1    
    30    9   31 1    
    31   12   32 1    
    32   12   33 1    
    33   15   34 1    
    34   15   35 1    
    35   18   36 1    
    36   18   37 1    
    37   19   38 1    
    38   19   39 1    
    39   20   40 1    
    40   20   41 1    
    41   21   42 1    
    42   21   43 1    
    43   22   44 1    
    44   22   45 1    
    45   22   46 1    
@<TRIPOS>SUBSTRUCTURE
     1 ****        2 TEMP              0 ****  ****    0 ROOT 
@<TRIPOS>NORMAL
@<TRIPOS>FF_PBC
FORCE_FIELD_SETUP_FEATURE Force Field Setup information
v1.0  0 0.000000 0.000000 0.000000 0.000000 0.000000 0.000000 NONE 0 0 0 0 1 0 0 0 0 0 0 0 0
