#	Name:			PISM00952.1
#	Creating user name:	baoopengkun
#	Creation time:		Thu Dec 13 10:09:20 2018

#	Modifying user name:	baoopengkun
#	Modification time:	Thu Dec 13 10:14:21 2018

@<TRIPOS>MOLECULE
PISM00952.1
   38    39     1     1     0
SMALL
GAST_HUCK


@<TRIPOS>ATOM
      1 C1         -9.9792   -2.7263   -2.0712 C.3       1 <1>        -0.0575 
      2 C2         -8.8041   -1.7110   -2.2120 C.3       1 <1>        -0.0059 
      3 C3         -7.6847   -2.3824   -3.0717 C.3       1 <1>        -0.0575 
      4 C4         -8.2028   -1.4601   -0.7963 C.3       1 <1>        -0.0575 
      5 C5         -9.2832   -0.3778   -2.9024 C.3       1 <1>         0.1219 
      6 O6         -9.9753   -0.6848   -4.1316 O.3       1 <1>        -0.3851 
      7 C7        -10.2386    0.5243   -2.0584 C.3       1 <1>         0.2332 
      8 N8         -9.5656    1.1525   -0.9302 N.pl3     1 <1>        -0.1431 
      9 N9         -8.2750    1.5895   -0.8863 N.2       1 <1>        -0.1875 
     10 C10        -7.9493    2.0923    0.2461 C.2       1 <1>         0.0619 
     11 N11        -9.1823    1.9452    0.9686 N.2       1 <1>        -0.2869 
     12 C12       -10.0552    1.4083    0.2447 C.2       1 <1>         0.1311 
     13 O13       -10.7108    1.6764   -2.7859 O.3       1 <1>        -0.2786 
     14 C14       -11.4896    1.4506   -3.9204 C.ar      1 <1>         0.0956 
     15 C15       -12.7759    0.9145   -3.8042 C.ar      1 <1>        -0.0323 
     16 C16       -13.5336    0.6617   -4.9517 C.ar      1 <1>        -0.0567 
     17 C17       -13.0151    0.9646   -6.2139 C.ar      1 <1>         0.0285 
     18 C18       -11.7389    1.5227   -6.3292 C.ar      1 <1>        -0.0567 
     19 C19       -10.9788    1.7674   -5.1819 C.ar      1 <1>        -0.0323 
     20 Cl20      -13.9649    0.6459   -7.6507 Cl        1 <1>        -0.0810 
     21 H1        -10.4439   -2.9294   -3.0477 H         1 <1>         0.0236 
     22 H2        -10.7578   -2.3588   -1.3883 H         1 <1>         0.0236 
     23 H3         -9.6123   -3.6827   -1.6676 H         1 <1>         0.0236 
     24 H4         -7.2688   -3.2633   -2.5585 H         1 <1>         0.0236 
     25 H5         -6.8587   -1.6769   -3.2504 H         1 <1>         0.0236 
     26 H6         -8.0596   -2.7317   -4.0439 H         1 <1>         0.0236 
     27 H7         -7.8146   -2.3953   -0.3644 H         1 <1>         0.0236 
     28 H8         -8.9600   -1.0803   -0.0974 H         1 <1>         0.0236 
     29 H9         -7.3678   -0.7464   -0.8515 H         1 <1>         0.0236 
     30 H10        -8.4137    0.2631   -3.1277 H         1 <1>         0.0661 
     31 H11        -9.4314   -1.0516   -4.8195 H         1 <1>         0.2101 
     32 H12       -11.1005   -0.0640   -1.7157 H         1 <1>         0.1080 
     33 H13        -6.9993    2.5147    0.5701 H         1 <1>         0.0864 
     34 H14       -11.0705    1.1977    0.5786 H         1 <1>         0.1362 
     35 H15       -13.1889    0.6975   -2.8252 H         1 <1>         0.0543 
     36 H16       -14.5259    0.2311   -4.8648 H         1 <1>         0.0595 
     37 H17       -11.3400    1.7642   -7.3089 H         1 <1>         0.0595 
     38 H18        -9.9875    2.2003   -5.2640 H         1 <1>         0.0543 
@<TRIPOS>BOND
     1    2    1 1    
     2    2    3 1    
     3    2    4 1    
     4    2    5 1    
     5    5    6 1    
     6    5    7 1    
     7    7    8 1    
     8    8    9 1    
     9    9   10 2    
    10   11   10 1    
    11   12   11 2    
    12    8   12 1    
    13    7   13 1    
    14   13   14 1    
    15   14   15 ar   
    16   15   16 ar   
    17   16   17 ar   
    18   18   17 ar   
    19   19   18 ar   
    20   14   19 ar   
    21   17   20 1    
    22    1   21 1    
    23    1   22 1    
    24    1   23 1    
    25    3   24 1    
    26    3   25 1    
    27    3   26 1    
    28    4   27 1    
    29    4   28 1    
    30    4   29 1    
    31    5   30 1    
    32    6   31 1    
    33    7   32 1    
    34   10   33 1    
    35   12   34 1    
    36   15   35 1    
    37   16   36 1    
    38   18   37 1    
    39   19   38 1    
@<TRIPOS>SUBSTRUCTURE
     1 ****        2 TEMP              0 ****  ****    0 ROOT 
@<TRIPOS>NORMAL
@<TRIPOS>FF_PBC
FORCE_FIELD_SETUP_FEATURE Force Field Setup information
v1.0  0 0.000000 0.000000 0.000000 0.000000 0.000000 0.000000 NONE 0 0 0 0 1 0 0 0 0 0 0 0 0
