#	Name:			PISM00317
#	Creating user name:	malab
#	Creation time:		Fri Apr 05 16:51:58 2019

#	Modifying user name:	malab
#	Modification time:	Fri Apr 05 16:53:32 2019

@<TRIPOS>MOLECULE
PISM00317
   40    42     1     1     0
SMALL
GAST_HUCK


@<TRIPOS>ATOM
      1 C1        -10.7637   -4.8155    0.3621 C.ar      1 <1>        -0.0573 
      2 C2        -10.4195   -4.4398    1.6637 C.ar      1 <1>         0.0310 
      3 C3        -10.5034   -3.0979    2.0460 C.ar      1 <1>        -0.0573 
      4 C4        -10.8798   -2.1295    1.1111 C.ar      1 <1>        -0.0678 
      5 C5        -11.1276   -2.4915   -0.2182 C.ar      1 <1>        -0.0517 
      6 C6        -11.1343   -3.8436   -0.5728 C.ar      1 <1>        -0.0678 
      7 Cl7        -9.8891   -5.6460    2.8172 Cl        1 <1>        -0.0785 
      8 C8        -11.4139   -1.4470   -1.2773 C.2       1 <1>        -0.0361 
      9 C9        -10.5892   -0.4450   -1.6393 C.2       1 <1>         0.1206 
     10 C10        -9.1836   -0.3065   -1.0697 C.3       1 <1>         0.1591 
     11 C11        -8.0899   -1.1326   -1.8473 C.3       1 <1>         0.1026 
     12 H1        -10.7409   -5.8605    0.0743 H         1 <1>         0.0000 
     13 C13        -6.6816   -0.7392   -1.3093 C.3       1 <1>        -0.0066 
     14 H2        -10.2754   -2.8104    3.0669 H         1 <1>         0.0000 
     15 O15        -8.8775    1.0819   -0.8320 O.3       1 <1>        -0.3396 
     16 C16        -8.9657    1.9136   -1.9959 C.3       1 <1>         0.1098 
     17 H3        -10.9841   -1.0942    1.4212 H         1 <1>         0.0000 
     18 C18       -10.2194    1.5692   -2.7467 C.2       1 <1>         0.1005 
     19 N19       -10.9229    0.4803   -2.5131 N.pl3     1 <1>        -0.1908 
     20 C20       -11.9795    0.5164   -3.2768 C.2       1 <1>         0.1110 
     21 N21       -11.9549    1.5504   -3.9892 N.2       1 <1>        -0.3382 
     22 C22       -10.7864    2.3339   -3.6986 C.2       1 <1>        -0.0199 
     23 H4        -11.4163   -4.1429   -1.5782 H         1 <1>         0.0000 
     24 H5        -12.3984   -1.5954   -1.7108 H         1 <1>         0.0000 
     25 C25        -8.1150   -0.9639   -3.4017 C.3       1 <1>        -0.3858 
     26 H6         -9.1527   -0.6715   -0.0360 H         1 <1>         0.0000 
     27 C27        -8.2963   -2.6583   -1.5854 C.3       1 <1>         0.0000 
     28 H8         -5.8912   -1.3104   -1.8201 H         1 <1>         0.0000 
     29 H9         -6.6127   -0.9392   -0.2277 H         1 <1>         0.0000 
     30 H10        -6.4784    0.3302   -1.4721 H         1 <1>         0.0000 
     31 H11        -8.0693    1.8681   -2.6206 H         1 <1>         0.0000 
     32 H12        -9.0410    2.9504   -1.6378 H         1 <1>         0.0000 
     33 H13       -12.8093   -0.1775   -3.3845 H         1 <1>         0.0000 
     34 H14       -10.4610    3.2839   -4.1228 H         1 <1>         0.0000 
     35 H15        -7.7309    0.0022   -3.7466 H         1 <1>         0.0000 
     36 H16        -9.1334   -1.1013   -3.7979 H         1 <1>         0.0000 
     37 H17        -7.4685   -1.7243   -3.8704 H         1 <1>         0.0000 
     38 H7         -9.1959   -3.0106   -2.1102 H         1 <1>         0.0000 
     39 H18        -8.3872   -2.8856   -0.5119 H         1 <1>         0.0000 
     40 H19        -7.4499   -3.2482   -1.9703 H         1 <1>         0.0000 
@<TRIPOS>BOND
     1    2    1 ar   
     2    2    3 ar   
     3    3    4 ar   
     4    4    5 ar   
     5    5    6 ar   
     6    1    6 ar   
     7    2    7 1    
     8    5    8 1    
     9    8    9 2    
    10    9   10 1    
    11   10   11 1    
    12    1   12 1    
    13   11   13 1    
    14    3   14 1    
    15   10   15 1    
    16   15   16 1    
    17    4   17 1    
    18   16   18 1    
    19   18   19 1    
    20    9   19 1    
    21   19   20 1    
    22   20   21 2    
    23   21   22 1    
    24   18   22 2    
    25    6   23 1    
    26    8   24 1    
    27   11   25 1    
    28   10   26 1    
    29   11   27 1    
    30   13   28 1    
    31   13   29 1    
    32   13   30 1    
    33   16   31 1    
    34   16   32 1    
    35   20   33 1    
    36   22   34 1    
    37   25   35 1    
    38   25   36 1    
    39   25   37 1    
    40   27   38 1    
    41   27   39 1    
    42   27   40 1    
@<TRIPOS>SUBSTRUCTURE
     1 ****        2 TEMP              0 ****  ****    0 ROOT 
@<TRIPOS>NORMAL
@<TRIPOS>FF_PBC
FORCE_FIELD_SETUP_FEATURE Force Field Setup information
v1.0  0 0.000000 0.000000 0.000000 0.000000 0.000000 0.000000 NONE 0 0 0 0 0 0 0 0 0 0 0 0 0
