#	Name:			PISM01215
#	Creating user name:	14062
#	Creation time:		Sun Oct 20 21:04:09 2019

#	Modifying user name:	14062
#	Modification time:	Sun Oct 20 21:09:35 2019

@<TRIPOS>MOLECULE
PISM01215
   42    44     2     2     0
SMALL
GAST_HUCK


@<TRIPOS>ATOM
      1 N1          7.7337    4.9394    1.4397 N.am      1 BENZYL     -0.2587 
      2 C1          8.2851    3.8435    0.8472 C.2       1 BENZYL      0.2065 
      3 C2          7.4505    2.7925    0.1488 C.ar      1 BENZYL      0.0460 
      4 C3          7.4624    2.7113   -1.2469 C.ar      1 BENZYL     -0.0437 
      5 C4          6.6738    1.7588   -1.8993 C.ar      1 BENZYL     -0.0223 
      6 C5          5.8822    0.8797   -1.1559 C.ar      1 BENZYL      0.1375 
      7 C6          5.8875    0.9438    0.2399 C.ar      1 BENZYL     -0.0223 
      8 C7          6.6786    1.8938    0.8927 C.ar      1 BENZYL     -0.0437 
      9 F9          5.1236   -0.0194   -1.7771 F         1 BENZYL     -0.1794 
     10 O10         9.4877    3.6396    0.8414 O.2       1 BENZYL     -0.3862 
     11 C11         6.2869    5.1831    1.3379 C.3       1 BENZYL      0.0466 
     12 C12         6.0026    5.9312    0.0120 C.3       1 BENZYL     -0.0414 
     13 C13         5.7427    6.0310    2.5224 C.3       1 BENZYL     -0.0179 
     14 C14         4.2640    5.7965    2.9075 C.3       1 BENZYL     -0.0478 
     15 C15         5.3934    5.2625    3.8160 C.3       1 BENZYL     -0.0478 
     16 C1          8.6250    5.8834    2.1252 C.3       2 BENZYL      0.0672 
     17 C2          8.4749    5.7256    3.6437 C.ar      2 BENZYL     -0.0208 
     18 C3          8.4606    4.4455    4.2086 C.ar      2 BENZYL     -0.0584 
     19 C4          8.2786    4.2812    5.5847 C.ar      2 BENZYL     -0.0685 
     20 C5          8.1284    5.4001    6.4081 C.ar      2 BENZYL     -0.0687 
     21 C6          8.1688    6.6821    5.8533 C.ar      2 BENZYL     -0.0685 
     22 C7          8.3465    6.8439    4.4762 C.ar      2 BENZYL     -0.0584 
     23 H1          8.0848    3.3897   -1.8222 H         1 BENZYL      0.0659 
     24 H2          6.6725    1.6976   -2.9826 H         1 BENZYL      0.0616 
     25 H3          5.2763    0.2533    0.8116 H         1 BENZYL      0.0616 
     26 H4          6.6960    1.9344    1.9777 H         1 BENZYL      0.0659 
     27 H5          5.7183    4.2421    1.3217 H         1 BENZYL      0.0559 
     28 H6          6.5356    6.8936   -0.0036 H         1 BENZYL      0.0252 
     29 H7          4.9237    6.1237   -0.0961 H         1 BENZYL      0.0252 
     30 H8          6.3403    5.3317   -0.8465 H         1 BENZYL      0.0252 
     31 H9          6.0660    7.0761    2.6485 H         1 BENZYL      0.0323 
     32 H10         3.6816    5.0301    2.3730 H         1 BENZYL      0.0269 
     33 H11         3.6995    6.6512    3.3122 H         1 BENZYL      0.0269 
     34 H12         5.5613    4.1743    3.8209 H         1 BENZYL      0.0269 
     35 H13         5.5552    5.7939    4.7666 H         1 BENZYL      0.0269 
     36 H14         9.6919    5.7357    1.8965 H         2 BENZYL      0.0685 
     37 H15         8.3798    6.9069    1.8054 H         2 BENZYL      0.0685 
     38 H16         8.5901    3.5711    3.5797 H         2 BENZYL      0.0557 
     39 H17         8.2542    3.2842    6.0138 H         2 BENZYL      0.0599 
     40 H18         7.9816    5.2737    7.4764 H         2 BENZYL      0.0559 
     41 H19         8.0615    7.5529    6.4929 H         2 BENZYL      0.0599 
     42 H20         8.3824    7.8452    4.0596 H         2 BENZYL      0.0557 
@<TRIPOS>BOND
     1    2    3 1    
     2    3    4 ar   
     3    3    8 ar   
     4    8    7 ar   
     5    7    6 ar   
     6    6    5 ar   
     7    5    4 ar   
     8    2    1 am   
     9    6    9 1    
    10    2   10 2    
    11    1   11 1    
    12   11   12 1    
    13   11   13 1    
    14   13   14 1    
    15   14   15 1    
    16   13   15 1    
    17   16   17 1    
    18   17   18 ar   
    19   17   22 ar   
    20   22   21 ar   
    21   21   20 ar   
    22   20   19 ar   
    23   19   18 ar   
    24    1   16 1    
    25    4   23 1    
    26    5   24 1    
    27    7   25 1    
    28    8   26 1    
    29   11   27 1    
    30   12   28 1    
    31   12   29 1    
    32   12   30 1    
    33   13   31 1    
    34   14   32 1    
    35   14   33 1    
    36   15   34 1    
    37   15   35 1    
    38   16   36 1    
    39   16   37 1    
    40   18   38 1    
    41   19   39 1    
    42   20   40 1    
    43   21   41 1    
    44   22   42 1    
@<TRIPOS>SUBSTRUCTURE
     1 BENZYL      2 PERM              0 ****  ****    1 ROOT 
     2 BENZYL     16 PERM              0 ****  ****    1  
@<TRIPOS>NORMAL
@<TRIPOS>FF_PBC
FORCE_FIELD_SETUP_FEATURE Force Field Setup information
v1.0  0 0.000000 0.000000 0.000000 0.000000 0.000000 0.000000 NONE 0 0 0 0 1 0 0 0 0 0 0 0 0
@<TRIPOS>RENDERING_ATTRS
ANTIALIASED_LINES 
*
