#	Name:			PISM00398
#	Creating user name:	malab
#	Creation time:		Tue Apr 02 20:32:38 2019

#	Modifying user name:	malab
#	Modification time:	Tue Apr 02 20:33:11 2019

@<TRIPOS>MOLECULE
PISM00398
   39    40     1     1     0
SMALL
GAST_HUCK


@<TRIPOS>ATOM
      1 C1          9.2782    1.3490    0.0294 C.2       1 <1>         0.0561 
      2 C2         10.4972    0.8678   -0.2745 C.2       1 <1>        -0.0185 
      3 N3         10.3988    0.8100   -1.7006 N.2       1 <1>        -0.3250 
      4 C4          9.2734    1.2106   -2.0766 C.2       1 <1>         0.1177 
      5 N5          8.5389    1.5528   -1.0488 N.pl3     1 <1>        -0.1979 
      6 C6          7.2986    2.0217   -1.0841 C.2       1 <1>         0.1187 
      7 C7          6.5268    2.3796    0.2013 C.3       1 <1>         0.1320 
      8 O8          7.1363    3.3702    1.0535 O.3       1 <1>        -0.3711 
      9 H1          9.0838    1.4946    1.0814 H         1 <1>         0.0880 
     10 H2         11.3330    0.5957    0.3701 H         1 <1>         0.0464 
     11 C11         6.6779    2.1926   -2.2735 C.2       1 <1>        -0.0352 
     12 C12         4.9986    4.0948   -2.2422 C.ar      1 <1>        -0.0675 
     13 C13         3.7006    4.5809   -2.4240 C.ar      1 <1>        -0.0571 
     14 C14         2.6979    3.7345   -2.9045 C.ar      1 <1>         0.0312 
     15 C15         2.9985    2.4068   -3.2197 C.ar      1 <1>        -0.0571 
     16 C16         4.2956    1.9210   -3.0324 C.ar      1 <1>        -0.0675 
     17 Cl17        1.0660    4.3364   -3.1132 Cl        1 <1>        -0.0783 
     18 C18         5.2915    2.7533   -2.5114 C.ar      1 <1>        -0.0510 
     19 C19         5.7659    1.2179    0.9400 C.3       1 <1>         0.0047 
     20 C20         6.7129    0.1183    1.5024 C.3       1 <1>        -0.0551 
     21 C21         4.9374    1.7981    2.1293 C.3       1 <1>        -0.0551 
     22 C22         4.7764    0.5295   -0.0491 C.3       1 <1>        -0.0551 
     23 H3          9.1119    1.2034   -3.1519 H         1 <1>         0.1245 
     24 H4          5.6972    3.0282   -0.0945 H         1 <1>         0.0853 
     25 H5          7.0862    1.9493   -3.2477 H         1 <1>         0.0307 
     26 H6          5.7803    4.7623   -1.8931 H         1 <1>         0.0541 
     27 H7          3.4687    5.6155   -2.1937 H         1 <1>         0.0600 
     28 H8          2.2242    1.7546   -3.6095 H         1 <1>         0.0600 
     29 H9          4.5284    0.8931   -3.2907 H         1 <1>         0.0541 
     30 H30         7.3662    0.5213    2.2889 H         1 <1>         0.0238 
     31 H10         7.3235   -0.3205    0.6996 H         1 <1>         0.0238 
     32 H11         6.1293   -0.6970    1.9574 H         1 <1>         0.0238 
     33 H12         4.2191    2.5563    1.7810 H         1 <1>         0.0238 
     34 H13         5.5949    2.2677    2.8763 H         1 <1>         0.0238 
     35 H14         4.3684    1.0022    2.6341 H         1 <1>         0.0238 
     36 H15         5.3208    0.0982   -0.9023 H         1 <1>         0.0238 
     37 H16         4.0349    1.2493   -0.4261 H         1 <1>         0.0238 
     38 H17         4.2235   -0.2841    0.4451 H         1 <1>         0.0238 
     39 H18         7.7036    3.0504    1.7409 H         1 <1>         0.2142 
@<TRIPOS>BOND
     1    1    2 2    
     2    2    3 1    
     3    4    3 2    
     4    5    4 1    
     5    5    1 1    
     6    6    5 1    
     7    6    7 1    
     8    7    8 1    
     9    1    9 1    
    10    2   10 1    
    11    4   23 1    
    12   11    6 2    
    13   18   12 ar   
    14   12   13 ar   
    15   13   14 ar   
    16   15   14 ar   
    17   16   15 ar   
    18   18   16 ar   
    19   11   18 1    
    20   14   17 1    
    21    7   19 1    
    22   19   20 1    
    23   19   21 1    
    24   19   22 1    
    25    7   24 1    
    26   11   25 1    
    27   12   26 1    
    28   13   27 1    
    29   15   28 1    
    30   16   29 1    
    31   20   30 1    
    32   20   31 1    
    33   20   32 1    
    34   21   33 1    
    35   21   34 1    
    36   21   35 1    
    37   22   36 1    
    38   22   37 1    
    39   22   38 1    
    40    8   39 1    
@<TRIPOS>SUBSTRUCTURE
     1 ****        2 TEMP              0 ****  ****    0 ROOT 
@<TRIPOS>NORMAL
@<TRIPOS>FF_PBC
FORCE_FIELD_SETUP_FEATURE Force Field Setup information
v1.0  0 0.000000 0.000000 0.000000 0.000000 0.000000 0.000000 NONE 0 0 0 0 1 0 0 0 0 0 0 0 0
