#	Name:			PISM00772
#	Creating user name:	baoopengkun
#	Creation time:		Tue Nov 20 09:58:54 2018

#	Modifying user name:	baoopengkun
#	Modification time:	Tue Nov 20 10:05:01 2018

@<TRIPOS>MOLECULE
PISM00772
   38    40     1     2     0
SMALL
GAST_HUCK


@<TRIPOS>ATOM
      1 C1         -6.4620    4.0374    3.1925 C.3       1 <1>        -0.0240 
      2 C2         -6.4515    3.4638    4.6226 C.3       1 <1>        -0.0149 
      3 C3         -4.9921    3.1402    4.7534 C.2       1 <1>        -0.0648 
      4 C4         -4.3055    2.9401    3.4232 C.3       1 <1>         0.0394 
      5 C5         -5.4613    3.1521    2.3962 C.3       1 <1>         0.0130 
      6 C6         -4.3874    3.0235    5.9417 C.2       1 <1>        -0.1285 
      7 C7         -3.1405    3.9280    3.1280 C.3       1 <1>         0.1096 
      8 C8         -5.0571    3.7231    1.0399 C.2       1 <1>        -0.0675 
      9 C9         -4.0507    2.9377    0.2180 C.3       1 <1>        -0.0171 
     10 C10        -2.7899    2.4312    0.9695 C.3       1 <1>        -0.0329 
     11 C11        -2.2113    3.4869    1.9573 C.3       1 <1>         0.0177 
     12 C12        -5.5609    4.8633    0.5377 C.2       1 <1>        -0.1286 
     13 O13        -2.2813    4.1524    4.2550 O.3       1 <1>        -0.2697 
     14 C14        -1.0563    3.6987    3.9955 C.2       1 <1>         0.2399 
     15 C15        -0.8947    3.0470    2.6560 C.3       1 <1>         0.0889 
     16 O16        -0.1334    3.8209    4.7831 O.2       1 <1>        -0.3700 
     17 C17        -0.6735    1.5270    2.8829 C.3       1 <1>         0.0654 
     18 O18        -1.7652    0.9560    3.6219 O.3       1 <1>        -0.3923 
     19 H1         -6.0902    5.0726    3.2738 H         1 <1>         0.0323 
     20 H2         -7.4742    4.0481    2.7557 H         1 <1>         0.0323 
     21 H3         -7.0319    2.5288    4.6714 H         1 <1>         0.0462 
     22 H4         -6.8243    4.1721    5.3805 H         1 <1>         0.0462 
     23 H5         -3.9631    1.8994    3.4634 H         1 <1>         0.0554 
     24 H6         -5.9559    2.1825    2.2147 H         1 <1>         0.0527 
     25 H7         -4.9441    3.1803    6.8650 H         1 <1>         0.0075 
     26 H8         -3.3334    2.7624    6.0231 H         1 <1>         0.0075 
     27 H9         -3.5897    4.9169    2.9351 H         1 <1>         0.0686 
     28 H10        -3.6884    3.5553   -0.6208 H         1 <1>         0.0460 
     29 H11        -4.5788    2.0778   -0.2255 H         1 <1>         0.0460 
     30 H12        -2.0119    2.1895    0.2247 H         1 <1>         0.0297 
     31 H13        -3.0336    1.4844    1.4692 H         1 <1>         0.0297 
     32 H14        -1.9826    4.3950    1.3696 H         1 <1>         0.0362 
     33 H15        -6.3010    5.4893    1.0287 H         1 <1>         0.0075 
     34 H16        -5.2546    5.2434   -0.4364 H         1 <1>         0.0075 
     35 H17        -0.0106    3.4633    2.1437 H         1 <1>         0.0581 
     36 H18         0.2604    1.3958    3.4580 H         1 <1>         0.0586 
     37 H19        -0.5484    1.0157    1.9141 H         1 <1>         0.0586 
     38 H20        -1.6522    0.0286    3.8108 H         1 <1>         0.2096 
@<TRIPOS>BOND
     1    2    1 1    
     2    2    3 1    
     3    3    4 1    
     4    4    5 1    
     5    1    5 1    
     6    3    6 2    
     7    4    7 1    
     8    5    8 1    
     9    8    9 1    
    10    9   10 1    
    11   10   11 1    
    12    7   11 1    
    13    8   12 2    
    14    7   13 1    
    15   13   14 1    
    16   14   15 1    
    17   11   15 1    
    18   14   16 2    
    19   15   17 1    
    20   17   18 1    
    21    1   19 1    
    22    1   20 1    
    23    2   21 1    
    24    2   22 1    
    25    4   23 1    
    26    5   24 1    
    27    6   25 1    
    28    6   26 1    
    29    7   27 1    
    30    9   28 1    
    31    9   29 1    
    32   10   30 1    
    33   10   31 1    
    34   11   32 1    
    35   12   33 1    
    36   12   34 1    
    37   15   35 1    
    38   17   36 1    
    39   17   37 1    
    40   18   38 1    
@<TRIPOS>SUBSTRUCTURE
     1 ****        2 TEMP              0 ****  ****    0 ROOT 
@<TRIPOS>NORMAL
@<TRIPOS>FF_PBC
FORCE_FIELD_SETUP_FEATURE Force Field Setup information
v1.0  0 0.000000 0.000000 0.000000 0.000000 0.000000 0.000000 NONE 0 0 0 0 1 0 0 0 0 0 0 0 0
@<TRIPOS>RENDERING_ATTRS
BALL_AND_STICK  
*
