#	Name:			PISM00104
#	Creating user name:	baoopengkun
#	Creation time:		Sun Dec 16 14:43:01 2018

#	Modifying user name:	baoopengkun
#	Modification time:	Sun Dec 16 14:45:05 2018

@<TRIPOS>MOLECULE
PISM00104
   47    49     1     1     0
SMALL
GAST_HUCK


@<TRIPOS>ATOM
      1 C1          3.3646   20.9471   -5.2877 C.ar      1 <1>        -0.0590 
      2 C2          2.3956   21.0274   -6.2915 C.ar      1 <1>        -0.0669 
      3 C3          1.3925   20.0573   -6.3755 C.ar      1 <1>        -0.0581 
      4 C4          1.3605   18.9957   -5.4645 C.ar      1 <1>        -0.0356 
      5 C5          2.3208   18.9319   -4.4490 C.ar      1 <1>        -0.0494 
      6 C6          3.3243   19.9004   -4.3628 C.ar      1 <1>         0.0016 
      7 I7          4.7375   19.7822   -2.8792 I         1 <1>        -0.0515 
      8 C8          0.2994   17.8925   -5.5679 C.3       1 <1>         0.0266 
      9 C9         -0.4768   17.8359   -4.2884 C.2       1 <1>         0.0198 
     10 C10        -0.4041   16.7476   -3.5112 C.2       1 <1>         0.0640 
     11 N11         0.3002   15.6919   -3.8469 N.pl3     1 <1>        -0.2570 
     12 C12         1.0013   15.6011   -4.9575 C.2       1 <1>         0.0656 
     13 C13         1.0361   16.6143   -5.8392 C.2       1 <1>         0.0483 
     14 C14         1.7678   16.6237   -7.1123 C.2       1 <1>         0.2189 
     15 O15         1.2386   16.1331   -8.0971 O.2       1 <1>        -0.3920 
     16 O16         2.9771   17.1962   -7.1624 O.3       1 <1>        -0.2881 
     17 C17         3.5632   17.2228   -8.4767 C.3       1 <1>         0.0711 
     18 C18         4.9283   17.9408   -8.3602 C.3       1 <1>        -0.0374 
     19 C19         1.7429   14.2775   -5.1245 C.3       1 <1>         0.0089 
     20 C20         2.7602   14.0646   -6.2778 C.3       1 <1>        -0.0499 
     21 C21        -1.3149   18.9956   -3.9276 C.2       1 <1>         0.0901 
     22 O22        -1.3897   19.9472   -4.6871 O.2       1 <1>        -0.4145 
     23 C23        -2.0878   19.0286   -2.6409 C.3       1 <1>         0.0138 
     24 C24        -1.3690   18.1289   -1.6099 C.3       1 <1>        -0.0238 
     25 C25        -1.1619   16.7089   -2.1968 C.3       1 <1>         0.0138 
     26 H1          4.1466   21.6969   -5.2261 H         1 <1>         0.0576 
     27 H2          2.4215   21.8437   -7.0066 H         1 <1>         0.0602 
     28 H3          0.6404   20.1338   -7.1538 H         1 <1>         0.0569 
     29 H4          2.2926   18.1255   -3.7242 H         1 <1>         0.0577 
     30 H5         -0.4063   18.0757   -6.3937 H         1 <1>         0.0530 
     31 H6          0.2952   14.8845   -3.2013 H         1 <1>         0.2223 
     32 H7          2.9185   17.7807   -9.1776 H         1 <1>         0.0606 
     33 H8          3.7139   16.1991   -8.8599 H         1 <1>         0.0606 
     34 H9          5.5817   17.3908   -7.6652 H         1 <1>         0.0255 
     35 H10         4.7807   18.9613   -7.9727 H         1 <1>         0.0255 
     36 H11         5.4207   17.9991   -9.3435 H         1 <1>         0.0255 
     37 H12         0.9852   13.4800   -5.1966 H         1 <1>         0.0498 
     38 H13         2.3199   14.1176   -4.1979 H         1 <1>         0.0498 
     39 H14         3.2560   13.0875   -6.1588 H         1 <1>         0.0259 
     40 H15         3.5410   14.8399   -6.2603 H         1 <1>         0.0259 
     41 H16         2.2610   14.0556   -7.2571 H         1 <1>         0.0259 
     42 H17        -3.1131   18.6774   -2.8349 H         1 <1>         0.0470 
     43 H18        -2.1345   20.0623   -2.2612 H         1 <1>         0.0470 
     44 H19        -1.9590   18.0794   -0.6792 H         1 <1>         0.0317 
     45 H20        -0.3846   18.5684   -1.3733 H         1 <1>         0.0317 
     46 H21        -2.1323   16.2168   -2.3682 H         1 <1>         0.0503 
     47 H22        -0.6090   16.1300   -1.4387 H         1 <1>         0.0503 
@<TRIPOS>BOND
     1    2    1 ar   
     2    2    3 ar   
     3    3    4 ar   
     4    4    5 ar   
     5    5    6 ar   
     6    1    6 ar   
     7    6    7 1    
     8    4    8 1    
     9    8    9 1    
    10    9   10 2    
    11   10   11 1    
    12   11   12 1    
    13   12   13 2    
    14    8   13 1    
    15   13   14 1    
    16   14   15 2    
    17   14   16 1    
    18   16   17 1    
    19   17   18 1    
    20   12   19 1    
    21   19   20 1    
    22    9   21 1    
    23   21   22 2    
    24   21   23 1    
    25   23   24 1    
    26   24   25 1    
    27   10   25 1    
    28    1   26 1    
    29    2   27 1    
    30    3   28 1    
    31    5   29 1    
    32    8   30 1    
    33   11   31 1    
    34   17   32 1    
    35   17   33 1    
    36   18   34 1    
    37   18   35 1    
    38   18   36 1    
    39   19   37 1    
    40   19   38 1    
    41   20   39 1    
    42   20   40 1    
    43   20   41 1    
    44   23   42 1    
    45   23   43 1    
    46   24   44 1    
    47   24   45 1    
    48   25   46 1    
    49   25   47 1    
@<TRIPOS>SUBSTRUCTURE
     1 ****        2 TEMP              0 ****  ****    0 ROOT 
@<TRIPOS>NORMAL
@<TRIPOS>FF_PBC
FORCE_FIELD_SETUP_FEATURE Force Field Setup information
v1.0  0 0.000000 0.000000 0.000000 0.000000 0.000000 0.000000 NONE 0 0 0 0 1 0 0 0 0 0 0 0 0
