#	Name:			PISM00064
#	Creating user name:	baoopengkun
#	Creation time:		Thu Dec 27 11:22:37 2018

#	Modifying user name:	baoopengkun
#	Modification time:	Thu Dec 27 11:25:08 2018

@<TRIPOS>MOLECULE
PISM00064
   37    39     1     1     0
SMALL
GAST_HUCK


@<TRIPOS>ATOM
      1 C1         -8.1103   15.7842  -15.1102 C.3       1 <1>         0.0168 
      2 C2         -8.7939   14.9377  -14.0707 C.2       1 <1>         0.1641 
      3 O3         -9.1024   13.6935  -14.4162 O.3       1 <1>        -0.1560 
      4 N4         -9.7309   13.1168  -13.2873 N.2       1 <1>        -0.1441 
      5 C5         -9.7303   14.0261  -12.3913 C.2       1 <1>         0.0656 
      6 C6         -9.1342   15.2879  -12.8380 C.2       1 <1>         0.0942 
      7 C7         -8.9380   16.5742  -12.1410 C.2       1 <1>         0.2135 
      8 O8         -7.8146   17.0428  -12.2158 O.2       1 <1>        -0.3842 
      9 N9         -9.8494   17.2111  -11.4543 N.pl3     1 <1>        -0.2066 
     10 C10       -11.0991   16.8390  -11.3822 C.2       1 <1>         0.2137 
     11 S11       -12.2183   17.7192  -10.3204 S.3       1 <1>         0.0768 
     12 C12       -13.3541   16.4816  -10.8731 C.2       1 <1>         0.1630 
     13 N13       -12.9425   15.6404  -11.7315 N.2       1 <1>        -0.2721 
     14 N14       -11.5758   15.8667  -12.0454 N.2       1 <1>        -0.2662 
     15 S15       -15.0007   16.4861  -10.1908 S.3       1 <1>        -0.0548 
     16 C16       -15.5107   14.8644  -10.8545 C.3       1 <1>         0.0112 
     17 C17       -16.9389   14.5445  -10.3509 C.3       1 <1>        -0.0533 
     18 C18       -10.2979   13.8000  -11.0061 C.ar      1 <1>         0.0017 
     19 C19        -9.6845   14.3917   -9.8960 C.ar      1 <1>        -0.0541 
     20 C20       -10.2442   14.2563   -8.6225 C.ar      1 <1>        -0.0617 
     21 C21       -11.4005   13.4923   -8.4461 C.ar      1 <1>        -0.0618 
     22 C22       -11.9901   12.8625   -9.5453 C.ar      1 <1>        -0.0479 
     23 C23       -11.4448   13.0180  -10.8229 C.ar      1 <1>         0.0476 
     24 Cl24      -12.2294   12.2355  -12.1811 Cl        1 <1>        -0.0700 
     25 H1         -7.1354   15.3377  -15.3553 H         1 <1>         0.0478 
     26 H2         -7.9519   16.8154  -14.7628 H         1 <1>         0.0478 
     27 H3         -8.7304   15.8110  -16.0184 H         1 <1>         0.0478 
     28 H4         -9.5582   18.0576  -10.9448 H         1 <1>         0.2211 
     29 H5        -14.8054   14.0904  -10.5102 H         1 <1>         0.0407 
     30 H6        -15.4958   14.8996  -11.9557 H         1 <1>         0.0407 
     31 H7        -16.9552   14.5101   -9.2504 H         1 <1>         0.0240 
     32 H8        -17.2679   13.5681  -10.7400 H         1 <1>         0.0240 
     33 H9        -17.6447   15.3175  -10.6930 H         1 <1>         0.0240 
     34 H10        -8.7663   14.9571  -10.0140 H         1 <1>         0.0618 
     35 H11        -9.7795   14.7423   -7.7699 H         1 <1>         0.0617 
     36 H12       -11.8390   13.3870   -7.4583 H         1 <1>         0.0613 
     37 H13       -12.8771   12.2525   -9.4091 H         1 <1>         0.0622 
@<TRIPOS>BOND
     1    2    1 1    
     2    2    3 1    
     3    3    4 1    
     4    4    5 2    
     5    5    6 1    
     6    2    6 2    
     7    6    7 1    
     8    7    8 2    
     9    7    9 1    
    10    9   10 1    
    11   10   11 1    
    12   11   12 1    
    13   12   13 2    
    14   13   14 1    
    15   10   14 2    
    16   12   15 1    
    17   15   16 1    
    18   16   17 1    
    19    5   18 1    
    20   18   19 ar   
    21   19   20 ar   
    22   20   21 ar   
    23   21   22 ar   
    24   22   23 ar   
    25   18   23 ar   
    26   23   24 1    
    27    1   25 1    
    28    1   26 1    
    29    1   27 1    
    30    9   28 1    
    31   16   29 1    
    32   16   30 1    
    33   17   31 1    
    34   17   32 1    
    35   17   33 1    
    36   19   34 1    
    37   20   35 1    
    38   21   36 1    
    39   22   37 1    
@<TRIPOS>SUBSTRUCTURE
     1 ****        2 TEMP              0 ****  ****    0 ROOT 
@<TRIPOS>NORMAL
@<TRIPOS>FF_PBC
FORCE_FIELD_SETUP_FEATURE Force Field Setup information
v1.0  0 0.000000 0.000000 0.000000 0.000000 0.000000 0.000000 NONE 0 0 0 0 1 0 0 0 0 0 0 0 0
