#	Name:			PISM00150
#	Creating user name:	14062
#	Creation time:		Sat Oct 19 22:47:36 2019

#	Modifying user name:	14062
#	Modification time:	Sat Oct 19 22:49:58 2019

@<TRIPOS>MOLECULE
PISM00150
   39    41     2     1     0
SMALL
GAST_HUCK


@<TRIPOS>ATOM
      1 S1          2.1547   -0.2278   -0.4416 S.3       1 BENZYL     -0.0198 
      2 C1          3.9298   -0.1619   -0.2797 C.2       1 BENZYL      0.0430 
      3 C2          4.8610   -0.5009   -1.4274 C.ar      1 BENZYL     -0.0054 
      4 C3          4.3932   -1.2905   -2.4853 C.ar      1 BENZYL     -0.0533 
      5 C4          5.2335   -1.6302   -3.5497 C.ar      1 BENZYL     -0.0616 
      6 C5          6.5585   -1.1881   -3.5632 C.ar      1 BENZYL     -0.0621 
      7 C6          7.0327   -0.3939   -2.5163 C.ar      1 BENZYL     -0.0616 
      8 C7          6.1838   -0.0410   -1.4629 C.ar      1 BENZYL     -0.0533 
      9 C9          4.3195    0.2091    0.9443 C.2       1 BENZYL     -0.0565 
     10 C10         3.1860    0.4787    1.8397 C.2       1 BENZYL     -0.0504 
     11 C11         1.9977    0.2938    1.2569 C.2       1 BENZYL      0.1071 
     12 C12         0.6931    0.4951    1.9297 C.2       1 BENZYL      0.2349 
     13 O13         0.7283    0.8757    3.0886 O.2       1 BENZYL     -0.3722 
     14 N14        -0.4384    0.2871    1.3075 N.pl3     2 BENZYL     -0.2370 
     15 C2         -1.6407    0.4783    1.9073 C.ar      2 BENZYL      0.0765 
     16 C3         -1.8752   -0.0312    3.1895 C.ar      2 BENZYL     -0.0404 
     17 C4         -3.0795    0.2335    3.8429 C.ar      2 BENZYL     -0.0740 
     18 C5         -4.0748    0.9632    3.1908 C.ar      2 BENZYL     -0.0663 
     19 C6         -3.8841    1.4143    1.8788 C.ar      2 BENZYL     -0.0341 
     20 C7         -2.6550    1.1815    1.2387 C.ar      2 BENZYL      0.0839 
     21 C21        -2.3764    1.6717   -0.1700 C.2       2 BENZYL      0.2481 
     22 O22        -3.0931    2.4984   -0.7113 O.2       2 BENZYL     -0.3686 
     23 O23        -1.3228    1.1932   -0.8412 O.3       2 BENZYL     -0.2966 
     24 C24        -5.0373    2.1489    1.1761 C.3       2 BENZYL     -0.0300 
     25 H1          3.3712   -1.6538   -2.4901 H         1 BENZYL      0.0622 
     26 H2          4.8575   -2.2394   -4.3662 H         1 BENZYL      0.0617 
     27 H3          7.2162   -1.4597   -4.3835 H         1 BENZYL      0.0614 
     28 H4          8.0624   -0.0488   -2.5232 H         1 BENZYL      0.0617 
     29 H5          6.5698    0.6019   -0.6806 H         1 BENZYL      0.0622 
     30 H6          5.3465    0.3091    1.2906 H         1 BENZYL      0.0471 
     31 H7          3.3149    0.7971    2.8742 H         1 BENZYL      0.0532 
     32 H8         -0.4295    0.0061    0.3162 H         2 BENZYL      0.2117 
     33 H9         -1.1270   -0.6410    3.6854 H         2 BENZYL      0.0486 
     34 H10        -3.2417   -0.1288    4.8539 H         2 BENZYL      0.0607 
     35 H11        -5.0000    1.1721    3.7186 H         2 BENZYL      0.0469 
     36 H12        -1.2532    1.5806   -1.7084 H         2 BENZYL      0.2517 
     37 H13        -4.7596    3.2017    1.0172 H         2 BENZYL      0.0403 
     38 H14        -5.9651    2.1282    1.7670 H         2 BENZYL      0.0403 
     39 H15        -5.2506    1.6711    0.2081 H         2 BENZYL      0.0403 
@<TRIPOS>BOND
     1    2    3 1    
     2    3    4 ar   
     3    3    8 ar   
     4    8    7 ar   
     5    7    6 ar   
     6    6    5 ar   
     7    5    4 ar   
     8    2    1 1    
     9    2    9 2    
    10    9   10 1    
    11   10   11 2    
    12    1   11 1    
    13   11   12 1    
    14   12   13 2    
    15   14   15 1    
    16   15   16 ar   
    17   15   20 ar   
    18   20   19 ar   
    19   19   18 ar   
    20   18   17 ar   
    21   17   16 ar   
    22   12   14 1    
    23   20   21 1    
    24   21   22 2    
    25   21   23 1    
    26   19   24 1    
    27    4   25 1    
    28    5   26 1    
    29    6   27 1    
    30    7   28 1    
    31    8   29 1    
    32    9   30 1    
    33   10   31 1    
    34   14   32 1    
    35   16   33 1    
    36   17   34 1    
    37   18   35 1    
    38   23   36 1    
    39   24   37 1    
    40   24   38 1    
    41   24   39 1    
@<TRIPOS>SUBSTRUCTURE
     1 BENZYL      2 PERM              0 ****  ****    1 ROOT 
     2 BENZYL     14 PERM              0 ****  ****    1  
@<TRIPOS>NORMAL
@<TRIPOS>FF_PBC
FORCE_FIELD_SETUP_FEATURE Force Field Setup information
v1.0  0 0.000000 0.000000 0.000000 0.000000 0.000000 0.000000 NONE 0 0 0 0 1 0 0 0 0 0 0 0 0
