#	Name:			PISM00190.2
#	Creating user name:	14062
#	Creation time:		Fri Jul 12 13:37:48 2019

#	Modifying user name:	14062
#	Modification time:	Fri Jul 12 13:40:15 2019

@<TRIPOS>MOLECULE
PISM00190.2
   57    58     1     1     0
SMALL
GAST_HUCK


@<TRIPOS>ATOM
      1 C1         -3.8759    2.5508    0.6053 C.ar      1 <1>        -0.0768 
      2 C2         -2.8730    2.1466    1.4999 C.ar      1 <1>        -0.0748 
      3 C3         -1.6683    2.8544    1.6023 C.ar      1 <1>        -0.0467 
      4 C4         -1.5016    3.9675    0.7780 C.ar      1 <1>         0.0450 
      5 C5         -2.4944    4.3605   -0.0978 C.ar      1 <1>        -0.0185 
      6 C6         -3.7054    3.6768   -0.2103 C.ar      1 <1>        -0.0716 
      7 C7         -1.8630    5.5698   -0.7341 C.2       1 <1>        -0.0224 
      8 C8         -0.6513    5.7098   -0.1680 C.2       1 <1>         0.0040 
      9 N9         -0.3499    4.7791    0.7512 N.3       1 <1>        -0.2350 
     10 C10        -2.4707    6.4519   -1.8021 C.3       1 <1>         0.0784 
     11 C11        -3.7513    7.0904   -1.2972 C.2       1 <1>         0.2403 
     12 O12        -4.4482    6.5422   -0.4618 O.2       1 <1>        -0.3685 
     13 O13        -4.1418    8.2826   -1.7642 O.3       1 <1>        -0.2916 
     14 C14        -2.6766    5.6249   -3.1024 C.3       1 <1>        -0.0271 
     15 C15        -4.0009    5.6165   -8.0580 C.3       1 <1>        -0.0328 
     16 C16        -4.5978    6.4364   -9.2312 C.3       1 <1>         0.0328 
     17 N17        -4.6453    5.5985  -10.4276 N.am      1 <1>        -0.2625 
     18 C18        -5.6295    4.6878  -10.5780 C.2       1 <1>         0.3200 
     19 O19        -6.5248    4.5306   -9.7658 O.2       1 <1>        -0.3775 
     20 O20        -5.4928    3.9920  -11.7156 O.3       1 <1>        -0.2581 
     21 C21        -6.4791    2.9684  -11.9845 C.3       1 <1>         0.0905 
     22 C22        -6.4538    1.8303  -10.9229 C.3       1 <1>        -0.0320 
     23 C23        -6.0218    2.3795  -13.3493 C.3       1 <1>        -0.0320 
     24 C24        -7.9120    3.5523  -12.1555 C.3       1 <1>        -0.0320 
     25 H1         -4.7998    1.9836    0.5443 H         1 <1>         0.0524 
     26 C26        -3.2277    6.4705   -4.2833 C.3       1 <1>        -0.0495 
     27 H2         -3.0324    1.2722    2.1234 H         1 <1>         0.0543 
     28 H3         -0.8901    2.5526    2.2950 H         1 <1>         0.0548 
     29 C29        -3.3263    5.6270   -5.5841 C.3       1 <1>        -0.0527 
     30 H4         -4.4835    3.9993   -0.8923 H         1 <1>         0.0551 
     31 C31        -3.9062    6.4621   -6.7587 C.3       1 <1>        -0.0512 
     32 H5          0.0396    6.5135   -0.4265 H         1 <1>         0.0760 
     33 H6          0.4952    4.1919    0.4177 H         1 <1>         0.1886 
     34 H7         -1.7419    7.2491   -2.0177 H         1 <1>         0.0644 
     35 H8         -3.5638    8.6852   -2.3991 H         1 <1>         0.2540 
     36 H9         -3.3727    4.7953   -2.9078 H         1 <1>         0.0308 
     37 H10        -1.7060    5.1905   -3.3949 H         1 <1>         0.0308 
     38 H11        -4.6357    4.7340   -7.8760 H         1 <1>         0.0284 
     39 H12        -2.9975    5.2636   -8.3471 H         1 <1>         0.0284 
     40 H13        -3.9714    7.3260   -9.4136 H         1 <1>         0.0519 
     41 H14        -5.6086    6.7915   -8.9690 H         1 <1>         0.0519 
     42 H15        -3.9199    5.6791  -11.1136 H         1 <1>         0.1867 
     43 H16        -7.0689    0.9816  -11.2590 H         1 <1>         0.0260 
     44 H17        -6.8452    2.1572   -9.9498 H         1 <1>         0.0260 
     45 H18        -5.4206    1.4798  -10.7789 H         1 <1>         0.0260 
     46 H19        -6.6912    1.5719  -13.6834 H         1 <1>         0.0260 
     47 H20        -5.0017    1.9737  -13.2648 H         1 <1>         0.0260 
     48 H21        -6.0146    3.1668  -14.1188 H         1 <1>         0.0260 
     49 H22        -7.8865    4.3978  -12.8594 H         1 <1>         0.0260 
     50 H23        -8.3362    3.9068  -11.2062 H         1 <1>         0.0260 
     51 H24        -8.5916    2.7838  -12.5542 H         1 <1>         0.0260 
     52 H25        -2.5641    7.3324   -4.4618 H         1 <1>         0.0268 
     53 H26        -4.2327    6.8453   -4.0305 H         1 <1>         0.0268 
     54 H27        -3.9755    4.7541   -5.4042 H         1 <1>         0.0265 
     55 H28        -2.3236    5.2602   -5.8595 H         1 <1>         0.0265 
     56 H29        -4.9119    6.8235   -6.4871 H         1 <1>         0.0266 
     57 H30        -3.2610    7.3379   -6.9385 H         1 <1>         0.0266 
@<TRIPOS>BOND
     1    1    2 ar   
     2    3    2 ar   
     3    4    3 ar   
     4    5    4 ar   
     5    5    6 ar   
     6    6    1 ar   
     7    7    5 1    
     8    7    8 2    
     9    8    9 1    
    10    9    4 1    
    11   10    7 1    
    12   10   11 1    
    13   11   12 2    
    14   11   13 1    
    15   14   10 1    
    16   31   15 1    
    17   15   16 1    
    18   16   17 1    
    19   17   18 am   
    20   18   19 2    
    21   18   20 1    
    22   20   21 1    
    23   21   22 1    
    24   21   23 1    
    25   21   24 1    
    26    1   25 1    
    27   26   14 1    
    28    2   27 1    
    29    3   28 1    
    30   29   26 1    
    31    6   30 1    
    32   29   31 1    
    33    8   32 1    
    34    9   33 1    
    35   10   34 1    
    36   13   35 1    
    37   14   36 1    
    38   14   37 1    
    39   15   38 1    
    40   15   39 1    
    41   16   40 1    
    42   16   41 1    
    43   17   42 1    
    44   22   43 1    
    45   22   44 1    
    46   22   45 1    
    47   23   46 1    
    48   23   47 1    
    49   23   48 1    
    50   24   49 1    
    51   24   50 1    
    52   24   51 1    
    53   26   52 1    
    54   26   53 1    
    55   29   54 1    
    56   29   55 1    
    57   31   56 1    
    58   31   57 1    
@<TRIPOS>SUBSTRUCTURE
     1 ****        2 TEMP              0 ****  ****    0 ROOT 
@<TRIPOS>NORMAL
@<TRIPOS>FF_PBC
FORCE_FIELD_SETUP_FEATURE Force Field Setup information
v1.0  0 0.000000 0.000000 0.000000 0.000000 0.000000 0.000000 NONE 0 0 0 0 1 0 0 0 0 0 0 0 0
