#	Name:			PISM01104
#	Creating user name:	Qinrunwen
#	Creation time:		Mon Apr 01 15:03:51 2019

#	Modifying user name:	Qinrunwen
#	Modification time:	Mon Apr 01 15:07:01 2019

@<TRIPOS>MOLECULE
PISM01104
   48    50     1     1     0
SMALL
GAST_HUCK


@<TRIPOS>ATOM
      1 C1         -1.2553   43.7619    5.5458 C.ar      1 <1>         0.0038 
      2 C2         -0.2291   44.1136    6.4327 C.ar      1 <1>         0.1224 
      3 C3          0.8497   43.2295    6.5790 C.ar      1 <1>        -0.0038 
      4 C4          0.9556   42.0799    5.7898 C.ar      1 <1>         0.1211 
      5 C5          0.0122   41.8373    4.7870 C.ar      1 <1>         0.1162 
      6 C6         -1.1128   42.6566    4.6987 C.ar      1 <1>        -0.0335 
      7 N7         -0.2670   45.2774    7.1321 N.pl3     1 <1>         0.0349 
      8 O8          2.0007   41.1789    6.0165 O.3       1 <1>        -0.3198 
      9 C9          1.5790   39.9176    6.5687 C.3       1 <1>         0.0597 
     10 O10         0.1718   40.7844    3.8840 O.3       1 <1>        -0.3302 
     11 C11         1.2204   40.9655    2.9178 C.3       1 <1>         0.0547 
     12 C12        -2.5715   44.5025    5.4764 C.2       1 <1>        -0.0381 
     13 C13        -3.0903   44.9783    4.3390 C.2       1 <1>         0.0655 
     14 C14        -2.5850   45.0924    2.9617 C.2       1 <1>         0.0362 
     15 N15        -3.5460   45.4869    2.2319 N.2       1 <1>        -0.2110 
     16 N16        -4.6809   45.7149    2.9338 N.pl3     1 <1>        -0.1373 
     17 C17        -4.4538   45.5028    4.1995 C.2       1 <1>         0.2455 
     18 C18        -5.8698   46.0936    2.4099 C.ar      1 <1>         0.0984 
     19 C19        -7.0781   45.5964    2.9122 C.ar      1 <1>        -0.0287 
     20 C20        -8.2907   45.9713    2.3273 C.ar      1 <1>        -0.0500 
     21 C21        -8.3072   46.8307    1.2237 C.ar      1 <1>         0.0495 
     22 C22        -7.1003   47.3432    0.7357 C.ar      1 <1>        -0.0500 
     23 C23        -5.8885   46.9753    1.3266 C.ar      1 <1>        -0.0287 
     24 C24        -9.6188   47.1993    0.5650 C.2       1 <1>         0.2515 
     25 O25       -10.6674   46.7422    0.9927 O.2       1 <1>        -0.3631 
     26 O26        -9.6238   48.0298   -0.4779 O.3       1 <1>        -0.2951 
     27 O27        -5.2183   45.6628    5.1376 O.2       1 <1>        -0.3721 
     28 C28        -1.2063   44.8400    2.4166 C.3       1 <1>        -0.0211 
     29 O29        -1.0343   46.1612    6.8208 O.2       1 <1>        -0.1234 
     30 O30         0.6215   45.5108    8.1939 O.3       1 <1>        -0.2369 
     31 H1          1.6246   43.4253    7.3113 H         1 <1>         0.0437 
     32 H2         -1.8808   42.4160    3.9705 H         1 <1>         0.0520 
     33 H3          2.4674   39.2912    6.7407 H         1 <1>         0.0579 
     34 H4          0.9048   39.3818    5.8833 H         1 <1>         0.0579 
     35 H5          1.0670   40.0744    7.5314 H         1 <1>         0.0579 
     36 H6          2.2025   41.0709    3.4039 H         1 <1>         0.0569 
     37 H7          1.0254   41.8534    2.2960 H         1 <1>         0.0569 
     38 H8          1.2448   40.0790    2.2664 H         1 <1>         0.0569 
     39 H9         -3.1448   44.6171    6.3976 H         1 <1>         0.0796 
     40 H10        -7.0887   44.9059    3.7485 H         1 <1>         0.0554 
     41 H11        -9.2189   45.5849    2.7367 H         1 <1>         0.0642 
     42 H12        -7.0989   48.0281   -0.1060 H         1 <1>         0.0642 
     43 H13        -4.9562   47.3743    0.9422 H         1 <1>         0.0554 
     44 H14       -10.5075   48.2002   -0.7832 H         1 <1>         0.2520 
     45 H15        -1.1960   43.8907    1.8627 H         1 <1>         0.0398 
     46 H16        -0.4509   44.8125    3.2120 H         1 <1>         0.0398 
     47 H17        -0.9444   45.6559    1.7275 H         1 <1>         0.0398 
     48 H18         0.1603   45.8677    8.9458 H         1 <1>         0.2534 
@<TRIPOS>BOND
     1    2    1 ar   
     2    2    3 ar   
     3    3    4 ar   
     4    4    5 ar   
     5    5    6 ar   
     6    1    6 ar   
     7    2    7 1    
     8    4    8 1    
     9    8    9 1    
    10    5   10 1    
    11   10   11 1    
    12    1   12 1    
    13   12   13 2    
    14   13   14 1    
    15   14   15 2    
    16   15   16 1    
    17   16   17 1    
    18   13   17 1    
    19   16   18 1    
    20   18   19 ar   
    21   19   20 ar   
    22   20   21 ar   
    23   21   22 ar   
    24   22   23 ar   
    25   18   23 ar   
    26   21   24 1    
    27   24   25 2    
    28   24   26 1    
    29   17   27 2    
    30   14   28 1    
    31    7   29 2    
    32    7   30 1    
    33    3   31 1    
    34    6   32 1    
    35    9   33 1    
    36    9   34 1    
    37    9   35 1    
    38   11   36 1    
    39   11   37 1    
    40   11   38 1    
    41   12   39 1    
    42   19   40 1    
    43   20   41 1    
    44   22   42 1    
    45   23   43 1    
    46   26   44 1    
    47   28   45 1    
    48   28   46 1    
    49   28   47 1    
    50   30   48 1    
@<TRIPOS>SUBSTRUCTURE
     1 ****        2 TEMP              0 ****  ****    0 ROOT 
@<TRIPOS>NORMAL
@<TRIPOS>FF_PBC
FORCE_FIELD_SETUP_FEATURE Force Field Setup information
v1.0  0 0.000000 0.000000 0.000000 0.000000 0.000000 0.000000 NONE 0 0 0 0 1 0 0 0 0 0 0 0 0
