#	Name:			PISM00809
#	Creating user name:	baoopengkun
#	Creation time:		Fri Nov 30 17:03:28 2018

#	Modifying user name:	baoopengkun
#	Modification time:	Fri Nov 30 17:04:33 2018

@<TRIPOS>MOLECULE
PISM00809
   38    39     1     2     0
SMALL
GAST_HUCK


@<TRIPOS>ATOM
      1 C1         -5.9390   -2.5136    0.7529 C.ar      1 <1>        -0.0752 
      2 C2         -7.0985   -3.2569    0.5144 C.ar      1 <1>        -0.0455 
      3 C3         -7.0579   -4.4003   -0.2925 C.ar      1 <1>         0.0948 
      4 C4         -5.8387   -4.7779   -0.8678 C.ar      1 <1>        -0.0455 
      5 C5         -4.6824   -4.0236   -0.6472 C.ar      1 <1>        -0.0752 
      6 C6         -4.7220   -2.8975    0.1816 C.ar      1 <1>        -0.0411 
      7 N7         -8.1815   -5.1292   -0.5140 N.pl3     1 <1>        -0.0629 
      8 O8         -9.3973   -4.7831    0.0893 O.3       1 <1>        -0.2506 
      9 O9         -8.1612   -6.2496   -1.3544 O.3       1 <1>        -0.2506 
     10 C10        -3.4811   -2.0778    0.4688 C.2       1 <1>         0.0733 
     11 C11        -3.5432   -0.5991    0.4763 C.2       1 <1>         0.2378 
     12 O12        -4.0628    0.1267   -0.5305 O.3       1 <1>        -0.2865 
     13 C13        -4.4930   -0.5936   -1.7022 C.3       1 <1>         0.0638 
     14 O14        -3.0734   -0.0085    1.4340 O.2       1 <1>        -0.3769 
     15 C15        -2.3129   -2.6704    0.7485 C.2       1 <1>         0.0985 
     16 O16        -2.2329   -4.0086    0.7903 O.3       1 <1>        -0.2549 
     17 C17        -0.9178   -4.4987    1.0961 C.3       1 <1>         0.2441 
     18 C18        -0.9447   -5.9990    0.9400 C.2       1 <1>         0.0001 
     19 C19        -0.1441   -6.3797   -0.0535 C.2       1 <1>         0.0293 
     20 C20         0.4149   -5.1240   -0.5414 C.2       1 <1>         0.2496 
     21 O21         0.0187   -4.0335    0.1027 O.3       1 <1>        -0.2295 
     22 C22         0.1158   -7.7703   -0.5648 C.3       1 <1>        -0.0323 
     23 O23         1.1990   -5.0725   -1.4730 O.2       1 <1>        -0.3691 
     24 H1         -5.9867   -1.6339    1.3877 H         1 <1>         0.0528 
     25 H2         -8.0317   -2.9348    0.9642 H         1 <1>         0.0497 
     26 H3         -5.7781   -5.6614   -1.4943 H         1 <1>         0.0497 
     27 H4         -3.7572   -4.3160   -1.1332 H         1 <1>         0.0528 
     28 H5         -9.6465   -5.4564    0.7124 H         1 <1>         0.2516 
     29 H6         -8.6974   -6.0810   -2.1212 H         1 <1>         0.2516 
     30 H7         -4.7122    0.1625   -2.4702 H         1 <1>         0.0574 
     31 H8         -5.4203   -1.1576   -1.5307 H         1 <1>         0.0574 
     32 H9         -3.7088   -1.2594   -2.0966 H         1 <1>         0.0574 
     33 H10        -1.4506   -2.0258    0.9428 H         1 <1>         0.1266 
     34 H11        -0.5889   -4.2171    2.1110 H         1 <1>         0.1223 
     35 H12        -1.5448   -6.6710    1.5524 H         1 <1>         0.0707 
     36 H13        -0.7916   -8.3867   -0.4789 H         1 <1>         0.0347 
     37 H14         0.9227   -8.2312    0.0238 H         1 <1>         0.0347 
     38 H15         0.4203   -7.7309   -1.6215 H         1 <1>         0.0347 
@<TRIPOS>BOND
     1    2    1 ar   
     2    2    3 ar   
     3    3    4 ar   
     4    4    5 ar   
     5    5    6 ar   
     6    1    6 ar   
     7    3    7 1    
     8    7    8 1    
     9    7    9 1    
    10    6   10 1    
    11   10   11 1    
    12   11   12 1    
    13   12   13 1    
    14   11   14 2    
    15   10   15 2    
    16   15   16 1    
    17   16   17 1    
    18   17   18 1    
    19   18   19 2    
    20   19   20 1    
    21   20   21 1    
    22   17   21 1    
    23   19   22 1    
    24   20   23 2    
    25    1   24 1    
    26    2   25 1    
    27    4   26 1    
    28    5   27 1    
    29    8   28 1    
    30    9   29 1    
    31   13   30 1    
    32   13   31 1    
    33   13   32 1    
    34   15   33 1    
    35   17   34 1    
    36   18   35 1    
    37   22   36 1    
    38   22   37 1    
    39   22   38 1    
@<TRIPOS>SUBSTRUCTURE
     1 ****        2 TEMP              0 ****  ****    0 ROOT 
@<TRIPOS>NORMAL
@<TRIPOS>FF_PBC
FORCE_FIELD_SETUP_FEATURE Force Field Setup information
v1.0  0 0.000000 0.000000 0.000000 0.000000 0.000000 0.000000 NONE 0 0 0 0 1 0 0 0 0 0 0 0 0
@<TRIPOS>RENDERING_ATTRS
ANTIALIASED_LINES 
*
