#	Name:			PISM00422
#	Creating user name:	malab
#	Creation time:		Wed Apr 10 23:27:48 2019

#	Modifying user name:	malab
#	Modification time:	Wed Apr 10 23:30:36 2019

@<TRIPOS>MOLECULE
PISM00422
   39    39     1     2     0
SMALL
USER_CHARGES


@<TRIPOS>ATOM
      1 C1        -13.8409   -0.2088    7.9857 C.3       1 <1>         0.0000 
      2 C2        -13.3782    1.2761    8.0468 C.3       1 <1>         0.0000 
      3 C3        -13.7121    1.8609    9.3917 C.2       1 <1>         0.0000 
      4 C4        -14.8278    1.3208   10.1860 C.2       1 <1>         0.0000 
      5 C5        -15.6061    0.3327    9.7252 C.2       1 <1>         0.0000 
      6 C6        -15.3660   -0.2701    8.3533 C.3       1 <1>         0.0000 
      7 C7        -12.9870   -1.0546    8.9853 C.3       1 <1>         0.0000 
      8 C8        -13.5694   -0.7651    6.5537 C.3       1 <1>         0.0000 
      9 O9        -13.0512    2.7878    9.8319 O.2       1 <1>         0.0000 
     10 C10       -16.7681   -0.2027   10.5333 C.3       1 <1>         0.0000 
     11 F11       -12.2319   -0.7792    6.2986 F         1 <1>         0.0000 
     12 H1        -13.8760    1.8872    7.2779 H         1 <1>         0.0000 
     13 H2        -12.2912    1.3399    7.8762 H         1 <1>         0.0000 
     14 C14       -15.8597   -1.7069    8.3126 C.2       1 <1>         0.0000 
     15 O15       -16.1549    0.6140    7.5343 O.3       1 <1>         0.0000 
     16 H3        -15.0041    1.7563   11.1696 H         1 <1>         0.0000 
     17 H4        -13.1690   -2.1310    8.8546 H         1 <1>         0.0000 
     18 H5        -13.1983   -0.7986   10.0337 H         1 <1>         0.0000 
     19 H6        -11.9127   -0.8904    8.8136 H         1 <1>         0.0000 
     20 H7        -14.0299   -0.1516    5.7659 H         1 <1>         0.0000 
     21 H8        -13.9368   -1.7982    6.4505 H         1 <1>         0.0000 
     22 H9        -17.6524   -0.3219    9.8896 H         1 <1>         0.0000 
     23 H10       -17.0400    0.4752   11.3558 H         1 <1>         0.0000 
     24 H11       -16.5062   -1.1759   10.9711 H         1 <1>         0.0000 
     25 C25       -16.6950   -2.2271    7.4023 C.2       1 <1>         0.0000 
     26 H12       -15.5017   -2.3708    9.0985 H         1 <1>         0.0000 
     27 H13       -16.0974    0.4650    6.5996 H         1 <1>         0.0000 
     28 H14       -17.0873   -1.6075    6.6008 H         1 <1>         0.0000 
     29 C29       -17.1207   -3.6460    7.4116 C.2       1 <1>         0.0000 
     30 C30       -18.3502   -4.0225    7.0233 C.2       1 <1>         0.0000 
     31 C31       -19.4610   -3.1494    6.5924 C.2       1 <1>         0.0000 
     32 C32       -16.1221   -4.6951    7.8543 C.3       1 <1>         0.0000 
     33 O33       -20.3775   -3.6434    5.9518 O.2       1 <1>         0.0000 
     34 O34       -19.4668   -1.8501    6.9140 O.3       1 <1>         0.0000 
     35 H15       -18.5917   -5.0860    7.0189 H         1 <1>         0.0000 
     36 H16       -15.0925   -4.3685    7.6400 H         1 <1>         0.0000 
     37 H17       -16.2777   -5.6566    7.3416 H         1 <1>         0.0000 
     38 H18       -16.2257   -4.8583    8.9370 H         1 <1>         0.0000 
     39 H19       -20.2285   -1.3787    6.5935 H         1 <1>         0.0000 
@<TRIPOS>BOND
     1    2    1 1    
     2    2    3 1    
     3    3    4 1    
     4    4    5 2    
     5    5    6 1    
     6    1    6 1    
     7    1    7 1    
     8    1    8 1    
     9    3    9 2    
    10    5   10 1    
    11    8   11 1    
    12    2   12 1    
    13    2   13 1    
    14    6   14 1    
    15    6   15 1    
    16    4   16 1    
    17    7   17 1    
    18    7   18 1    
    19    7   19 1    
    20    8   20 1    
    21    8   21 1    
    22   10   22 1    
    23   10   23 1    
    24   10   24 1    
    25   14   25 2    
    26   14   26 1    
    27   15   27 1    
    28   25   28 1    
    29   25   29 1    
    30   29   30 2    
    31   30   31 1    
    32   29   32 1    
    33   31   33 2    
    34   31   34 1    
    35   30   35 1    
    36   32   36 1    
    37   32   37 1    
    38   32   38 1    
    39   34   39 1    
@<TRIPOS>SUBSTRUCTURE
     1 ****        2 TEMP              0 ****  ****    0 ROOT 
@<TRIPOS>NORMAL
@<TRIPOS>FF_PBC
FORCE_FIELD_SETUP_FEATURE Force Field Setup information
v1.0  0 0.000000 0.000000 0.000000 0.000000 0.000000 0.000000 NONE 0 0 0 0 0 0 0 0 0 0 0 0 0
@<TRIPOS>RENDERING_ATTRS
ANTIALIASED_LINES 
*
