#	Name:			PISM00047
#	Creating user name:	baoopengkun
#	Creation time:		Thu Dec 27 11:08:36 2018

#	Modifying user name:	baoopengkun
#	Modification time:	Thu Dec 27 11:15:34 2018

@<TRIPOS>MOLECULE
PISM00047
   28    29     1     1     0
SMALL
GAST_HUCK


@<TRIPOS>ATOM
      1 Cl1        -5.8708    9.2459   -0.1625 Cl        1 <1>        -0.0810 
      2 C2         -4.6924    7.9546   -0.0506 C.ar      1 <1>         0.0285 
      3 C3         -5.1139    6.6249    0.0191 C.ar      1 <1>        -0.0567 
      4 C4         -4.1680    5.6002    0.1123 C.ar      1 <1>        -0.0322 
      5 C5         -2.8002    5.8877    0.1363 C.ar      1 <1>         0.0948 
      6 C6         -2.3822    7.2240    0.0621 C.ar      1 <1>        -0.0322 
      7 C7         -3.3273    8.2510   -0.0306 C.ar      1 <1>        -0.0567 
      8 O8         -1.8952    4.8211    0.2346 O.3       1 <1>        -0.2963 
      9 C9         -0.4681    5.0144    0.2886 C.3       1 <1>         0.1665 
     10 C10         0.2801    3.7026    0.4082 C.2       1 <1>         0.2444 
     11 O11        -0.3754    2.6749    0.4342 O.2       1 <1>        -0.3718 
     12 N12         1.5878    3.7428    0.4774 N.pl3     1 <1>        -0.1926 
     13 C13         2.3606    2.6939    0.5830 C.2       1 <1>         0.1806 
     14 S14         1.7261    1.0229    0.6451 S.3       1 <1>        -0.0275 
     15 C15         3.3059    0.5509    1.3810 C.3       1 <1>         0.0224 
     16 C16         4.2846    1.5601    0.7413 C.3       1 <1>        -0.0100 
     17 N17         3.6238    2.8424    0.6434 N.2       1 <1>        -0.3571 
     18 H1         -6.1734    6.3904    0.0007 H         1 <1>         0.0595 
     19 H2         -4.4935    4.5665    0.1673 H         1 <1>         0.0543 
     20 H3         -1.3336    7.4942    0.0743 H         1 <1>         0.0543 
     21 H4         -3.0028    9.2852   -0.0874 H         1 <1>         0.0595 
     22 H5         -0.2149    5.6261    1.1678 H         1 <1>         0.0870 
     23 H6         -0.1293    5.5102   -0.6337 H         1 <1>         0.0870 
     24 H7          2.0605    4.6574    0.4485 H         1 <1>         0.2285 
     25 H8          3.5662   -0.4984    1.1730 H         1 <1>         0.0417 
     26 H9          3.2390    0.7112    2.4688 H         1 <1>         0.0417 
     27 H10         4.5666    1.2412   -0.2757 H         1 <1>         0.0316 
     28 H11         5.1991    1.6507    1.3487 H         1 <1>         0.0316 
@<TRIPOS>BOND
     1    2    1 1    
     2    2    3 ar   
     3    3    4 ar   
     4    4    5 ar   
     5    5    6 ar   
     6    6    7 ar   
     7    2    7 ar   
     8    5    8 1    
     9    8    9 1    
    10    9   10 1    
    11   10   11 2    
    12   10   12 1    
    13   12   13 1    
    14   13   14 1    
    15   14   15 1    
    16   15   16 1    
    17   16   17 1    
    18   13   17 2    
    19    3   18 1    
    20    4   19 1    
    21    6   20 1    
    22    7   21 1    
    23    9   22 1    
    24    9   23 1    
    25   12   24 1    
    26   15   25 1    
    27   15   26 1    
    28   16   27 1    
    29   16   28 1    
@<TRIPOS>SUBSTRUCTURE
     1 ****        2 TEMP              0 ****  ****    0 ROOT 
@<TRIPOS>NORMAL
@<TRIPOS>FF_PBC
FORCE_FIELD_SETUP_FEATURE Force Field Setup information
v1.0  0 0.000000 0.000000 0.000000 0.000000 0.000000 0.000000 NONE 0 0 0 0 1 0 0 0 0 0 0 0 0
