#	Name:			PISM00207
#	Creating user name:	14062
#	Creation time:		Mon Apr 01 20:10:24 2019

#	Modifying user name:	14062
#	Modification time:	Mon Apr 01 20:44:22 2019

@<TRIPOS>MOLECULE
PISM00207
   38    40     1     2     0
SMALL
GAST_HUCK


@<TRIPOS>ATOM
      1 N1         -0.0023    2.4762    6.1545 N.pl3     1 <1>        -0.2884 
      2 C2         -1.3452    2.3985    6.0755 C.ar      1 <1>         0.0606 
      3 C3         -1.6966    1.4485    5.1361 C.ar      1 <1>        -0.0191 
      4 C4         -3.0262    1.1429    4.8496 C.ar      1 <1>        -0.0746 
      5 C5         -4.0035    1.8619    5.5503 C.ar      1 <1>        -0.0792 
      6 C6         -3.6500    2.8325    6.5016 C.ar      1 <1>        -0.0767 
      7 C7         -0.3555    0.9695    4.6422 C.2       1 <1>        -0.0230 
      8 C8          0.5815    1.6479    5.3261 C.2       1 <1>         0.0195 
      9 C9         -2.3073    3.1170    6.7843 C.ar      1 <1>        -0.0442 
     10 C10        -0.1389   -0.0767    3.5827 C.3       1 <1>         0.0765 
     11 C11        -0.8833   -1.3144    4.0148 C.2       1 <1>         0.2395 
     12 O12        -1.7551   -1.8286    3.3323 O.2       1 <1>        -0.3687 
     13 O13        -0.5274   -1.8150    5.1987 O.3       1 <1>        -0.2917 
     14 C14        -0.5920    0.4126    2.1782 C.3       1 <1>        -0.0249 
     15 C15        -0.0842    1.9656    0.1906 C.3       1 <1>        -0.0500 
     16 C16         0.3693    3.4348    0.0552 C.3       1 <1>        -0.0528 
     17 C17        -0.3167    4.0918    1.2742 C.3       1 <1>        -0.0528 
     18 C18        -0.2587    3.0134    2.3931 C.3       1 <1>        -0.0500 
     19 H1          0.5016    3.1115    6.7912 H         1 <1>         0.2219 
     20 H2         -3.2895    0.3840    4.1209 H         1 <1>         0.0540 
     21 H3         -5.0522    1.6630    5.3527 H         1 <1>         0.0510 
     22 C22         0.1600    1.6854    1.6937 C.3       1 <1>        -0.0376 
     23 H4         -4.4305    3.3725    7.0287 H         1 <1>         0.0530 
     24 H5          1.6586    1.5252    5.2020 H         1 <1>         0.0804 
     25 H6         -2.0244    3.8619    7.5202 H         1 <1>         0.0541 
     26 H7          0.9300   -0.3392    3.5390 H         1 <1>         0.0635 
     27 H8         -1.0457   -2.5822    5.4144 H         1 <1>         0.2540 
     28 H9         -1.6761    0.6034    2.1706 H         1 <1>         0.0309 
     29 H10        -0.3910   -0.4007    1.4615 H         1 <1>         0.0309 
     30 H11        -1.1588    1.8856   -0.0446 H         1 <1>         0.0268 
     31 H12         0.4780    1.2864   -0.4710 H         1 <1>         0.0268 
     32 H13         0.0708    3.8887   -0.9042 H         1 <1>         0.0265 
     33 H14         1.4658    3.5011    0.1569 H         1 <1>         0.0265 
     34 H15        -1.3683    4.2996    1.0080 H         1 <1>         0.0265 
     35 H16         0.1610    5.0430    1.5614 H         1 <1>         0.0265 
     36 H17        -1.2467    2.9357    2.8747 H         1 <1>         0.0268 
     37 H18         0.4789    3.2968    3.1614 H         1 <1>         0.0268 
     38 H19         1.2466    1.5332    1.8230 H         1 <1>         0.0303 
@<TRIPOS>BOND
     1    8    1 1    
     2    2    1 1    
     3    3    2 ar   
     4    7    3 1    
     5    3    4 ar   
     6    4    5 ar   
     7    5    6 ar   
     8    7    8 2    
     9    9    6 ar   
    10    2    9 ar   
    11    7   10 1    
    12   10   11 1    
    13   11   12 2    
    14   11   13 1    
    15   10   14 1    
    16   22   15 1    
    17   15   16 1    
    18   16   17 1    
    19   17   18 1    
    20   22   18 1    
    21    1   19 1    
    22    4   20 1    
    23   14   22 1    
    24    5   21 1    
    25    6   23 1    
    26    8   24 1    
    27    9   25 1    
    28   10   26 1    
    29   13   27 1    
    30   14   28 1    
    31   14   29 1    
    32   15   30 1    
    33   15   31 1    
    34   16   32 1    
    35   16   33 1    
    36   17   34 1    
    37   17   35 1    
    38   18   36 1    
    39   18   37 1    
    40   22   38 1    
@<TRIPOS>SUBSTRUCTURE
     1 ****        7 TEMP              0 ****  ****    0 ROOT 
@<TRIPOS>NORMAL
@<TRIPOS>FF_PBC
FORCE_FIELD_SETUP_FEATURE Force Field Setup information
v1.0  0 0.000000 0.000000 0.000000 0.000000 0.000000 0.000000 NONE 0 0 0 0 1 0 0 0 0 0 0 0 0
@<TRIPOS>RENDERING_ATTRS
ANTIALIASED_LINES 
1,2,3,4,5,6,7,8,9,10,11,12,13,14,16,17,22
