#	Name:			PISM01199
#	Creating user name:	14062
#	Creation time:		Sun Apr 07 00:15:24 2019

#	Modifying user name:	14062
#	Modification time:	Sun Apr 07 00:19:59 2019

@<TRIPOS>MOLECULE
PISM01199
   55    57     2     1     0
SMALL
GAST_HUCK


@<TRIPOS>ATOM
      1 C1        -14.6075    6.9985    4.6340 C.ar      1 BENZYL      0.0826 
      2 N2        -15.8085    7.5746    4.4168 N.ar      1 BENZYL     -0.2616 
      3 C2        -16.9471    6.8921    4.6609 C.ar      1 BENZYL      0.1326 
      4 C3        -16.8922    5.5808    5.1386 C.ar      1 BENZYL      0.1183 
      5 N5        -18.0306    4.8828    5.3222 N.ar      1 BENZYL     -0.2668 
      6 C5        -19.2269    5.4419    5.0535 C.ar      1 BENZYL      0.1670 
      7 N7        -19.3148    6.7247    4.6474 N.ar      1 BENZYL     -0.2298 
      8 C7        -18.2046    7.4623    4.4468 C.ar      1 BENZYL      0.1540 
      9 N9        -15.6947    5.0254    5.4119 N.ar      1 BENZYL     -0.2649 
     10 C10       -14.5550    5.7109    5.1839 C.ar      1 BENZYL      0.0478 
     11 C11       -13.3382    7.7684    4.2597 C.3       1 BENZYL      0.0825 
     12 N12       -13.1235    8.8907    5.1727 N.pl3     2 BENZYL     -0.2945 
     13 C2        -11.9479    8.9976    5.8338 C.ar      2 BENZYL      0.0476 
     14 C3        -11.6575    8.1330    6.8908 C.ar      2 BENZYL     -0.0379 
     15 C4        -10.4320    8.2321    7.5563 C.ar      2 BENZYL     -0.0535 
     16 C5         -9.4763    9.1775    7.1632 C.ar      2 BENZYL      0.0363 
     17 C6         -9.7795   10.0421    6.1028 C.ar      2 BENZYL     -0.0535 
     18 C7        -11.0160    9.9666    5.4556 C.ar      2 BENZYL     -0.0379 
     19 N19       -20.3478    4.7058    5.1923 N.pl3     1 BENZYL     -0.3051 
     20 N20       -18.3268    8.7458    4.0404 N.pl3     1 BENZYL     -0.3052 
     21 C21       -14.1371    9.9345    5.3119 C.3       2 BENZYL      0.0191 
     22 C22        -8.1428    9.2164    7.8868 C.2       2 BENZYL      0.1975 
     23 O23        -7.7855    8.2089    8.4742 O.2       2 BENZYL     -0.3907 
     24 N24        -7.3582   10.3177    7.8952 N.am      2 BENZYL     -0.2654 
     25 C25        -6.0462   10.2731    8.5444 C.3       2 BENZYL      0.1434 
     26 C26        -5.1079   11.2386    7.8564 C.2       2 BENZYL      0.2571 
     27 O27        -4.6843   12.2466    8.3990 O.2       2 BENZYL     -0.3680 
     28 O28        -4.7748   10.9213    6.6044 O.3       2 BENZYL     -0.2910 
     29 C29        -6.2287   10.5808   10.0558 C.3       2 BENZYL      0.0071 
     30 C30        -4.9234   10.3606   10.8695 C.3       2 BENZYL      0.0528 
     31 C31        -5.1147   10.6592   12.3329 C.2       2 BENZYL      0.2314 
     32 O32        -6.1783   11.0485   12.7878 O.2       2 BENZYL     -0.3706 
     33 O33        -4.0417   10.4714   13.1010 O.3       2 BENZYL     -0.2927 
     34 H1        -13.6057    5.2485    5.4295 H         1 BENZYL      0.0952 
     35 H2        -13.4719    8.1565    3.2382 H         1 BENZYL      0.0719 
     36 H3        -12.4702    7.0893    4.2401 H         1 BENZYL      0.0719 
     37 H4        -12.3862    7.3884    7.1936 H         2 BENZYL      0.0530 
     38 H5        -10.2266    7.5641    8.3867 H         2 BENZYL      0.0636 
     39 H6         -9.0609   10.7735    5.7530 H         2 BENZYL      0.0636 
     40 H7        -11.2530   10.6544    4.6502 H         2 BENZYL      0.0530 
     41 H8        -21.2662    5.1231    4.9892 H         1 BENZYL      0.1844 
     42 H9        -20.2820    3.7253    5.4974 H         1 BENZYL      0.1844 
     43 H10       -17.4864    9.3177    3.8684 H         1 BENZYL      0.1886 
     44 H11       -19.2625    9.1551    3.9064 H         1 BENZYL      0.1886 
     45 H12       -14.6324   10.1271    4.3478 H         2 BENZYL      0.0482 
     46 H13       -13.7076   10.8824    5.6728 H         2 BENZYL      0.0482 
     47 H14       -14.8920    9.5960    6.0381 H         2 BENZYL      0.0482 
     48 H15        -7.6584   11.1899    7.5120 H         2 BENZYL      0.1874 
     49 H16        -5.5894    9.2761    8.4275 H         2 BENZYL      0.0817 
     50 H17        -4.1899   11.5690    6.2271 H         2 BENZYL      0.2540 
     51 H18        -7.0072    9.9130   10.4609 H         2 BENZYL      0.0339 
     52 H19        -6.5781   11.6194   10.1723 H         2 BENZYL      0.0339 
     53 H20        -4.1164   11.0116   10.5025 H         2 BENZYL      0.0521 
     54 H21        -4.5951    9.3135   10.7750 H         2 BENZYL      0.0521 
     55 H22        -4.2310   10.6813   14.0091 H         2 BENZYL      0.2539 
@<TRIPOS>BOND
     1    2    3 ar   
     2    3    4 ar   
     3    3    8 ar   
     4    8    7 ar   
     5    7    6 ar   
     6    6    5 ar   
     7    5    4 ar   
     8    2    1 ar   
     9    4    9 ar   
    10    9   10 ar   
    11    1   10 ar   
    12    1   11 1    
    13   12   13 1    
    14   13   14 ar   
    15   13   18 ar   
    16   18   17 ar   
    17   17   16 ar   
    18   16   15 ar   
    19   15   14 ar   
    20   11   12 1    
    21    6   19 1    
    22    8   20 1    
    23   12   21 1    
    24   16   22 1    
    25   22   23 2    
    26   22   24 am   
    27   24   25 1    
    28   25   26 1    
    29   26   27 2    
    30   26   28 1    
    31   25   29 1    
    32   29   30 1    
    33   30   31 1    
    34   31   32 2    
    35   31   33 1    
    36   10   34 1    
    37   11   35 1    
    38   11   36 1    
    39   14   37 1    
    40   15   38 1    
    41   17   39 1    
    42   18   40 1    
    43   19   41 1    
    44   19   42 1    
    45   20   43 1    
    46   20   44 1    
    47   21   45 1    
    48   21   46 1    
    49   21   47 1    
    50   24   48 1    
    51   25   49 1    
    52   28   50 1    
    53   29   51 1    
    54   29   52 1    
    55   30   53 1    
    56   30   54 1    
    57   33   55 1    
@<TRIPOS>SUBSTRUCTURE
     1 BENZYL      2 PERM              0 ****  ****    1 ROOT 
     2 BENZYL     12 PERM              0 ****  ****    1  
@<TRIPOS>NORMAL
@<TRIPOS>FF_PBC
FORCE_FIELD_SETUP_FEATURE Force Field Setup information
v1.0  0 0.000000 0.000000 0.000000 0.000000 0.000000 0.000000 NONE 0 0 0 0 1 0 0 0 0 0 0 0 0
