#	Name:			PISM00046
#	Creating user name:	baoopengkun
#	Creation time:		Thu Dec 27 18:01:38 2018

#	Modifying user name:	baoopengkun
#	Modification time:	Thu Dec 27 18:02:47 2018

@<TRIPOS>MOLECULE
PISM00046
   15    15     1     1     0
SMALL
GAST_HUCK


@<TRIPOS>ATOM
      1 O1         18.1223    4.6727    5.6187 O.2       1 <1>        -0.3558 
      2 C2         17.8302    5.8010    5.9839 C.2       1 <1>         0.2625 
      3 O3         18.0641    6.1781    7.2426 O.3       1 <1>        -0.2931 
      4 C4         17.2025    6.7730    5.0070 C.ar      1 <1>         0.0643 
      5 C5         16.9614    6.3890    3.6828 C.ar      1 <1>        -0.0378 
      6 C6         16.3850    7.2877    2.7801 C.ar      1 <1>        -0.0450 
      7 C7         16.0450    8.5775    3.1967 C.ar      1 <1>         0.0139 
      8 C8         16.2812    8.9648    4.5185 C.ar      1 <1>        -0.0450 
      9 C9         16.8577    8.0651    5.4200 C.ar      1 <1>        -0.0378 
     10 H1         18.4602    5.4784    7.7506 H         1 <1>         0.2524 
     11 H2         17.2216    5.3892    3.3491 H         1 <1>         0.0678 
     12 H3         16.2014    6.9838    1.7544 H         1 <1>         0.0657 
     13 I13        15.2014    9.8987    1.8711 I         1 <1>        -0.0457 
     14 H5         16.0165    9.9656    4.8448 H         1 <1>         0.0657 
     15 H6         17.0362    8.3769    6.4444 H         1 <1>         0.0678 
@<TRIPOS>BOND
     1    2    1 2    
     2    2    3 1    
     3    2    4 1    
     4    4    5 ar   
     5    5    6 ar   
     6    6    7 ar   
     7    7    8 ar   
     8    8    9 ar   
     9    4    9 ar   
    10    3   10 1    
    11    5   11 1    
    12    6   12 1    
    13    7   13 1    
    14    8   14 1    
    15    9   15 1    
@<TRIPOS>SUBSTRUCTURE
     1 ****        2 TEMP              0 ****  ****    0 ROOT 
@<TRIPOS>NORMAL
@<TRIPOS>FF_PBC
FORCE_FIELD_SETUP_FEATURE Force Field Setup information
v1.0  0 0.000000 0.000000 0.000000 0.000000 0.000000 0.000000 NONE 0 0 0 0 1 0 0 0 0 0 0 0 0
