#	Name:			PISM00552
#	Creating user name:	baoopengkun
#	Creation time:		Sat Dec 15 14:51:35 2018

#	Modifying user name:	baoopengkun
#	Modification time:	Sat Dec 15 14:58:57 2018

@<TRIPOS>MOLECULE
PISM00552
   35    36     1     1     0
SMALL
GAST_HUCK


@<TRIPOS>ATOM
      1 C1          7.2057    8.7186   17.2656 C.3       1 <1>        -0.0559 
      2 C2          8.1515    9.4431   15.0280 C.3       1 <1>        -0.0559 
      3 H1          7.5654    9.6476   17.7340 H         1 <1>         0.0238 
      4 H2          7.9959    7.9585   17.3635 H         1 <1>         0.0238 
      5 H3          6.3290    8.3709   17.8314 H         1 <1>         0.0238 
      6 H4          8.9459    8.6842   15.0995 H         1 <1>         0.0238 
      7 C7          5.7584   10.0468   15.6328 C.3       1 <1>         0.0217 
      8 C8          6.8663    8.9618   15.7637 C.3       1 <1>        -0.0064 
      9 C9          6.3582    7.6450   15.1084 C.3       1 <1>         0.0217 
     10 C10         5.0460    7.2009   15.6957 C.2       1 <1>         0.1095 
     11 C11         4.0922    8.1620   16.2827 C.2       1 <1>         0.0864 
     12 C12         4.4554    9.5920   16.2338 C.2       1 <1>         0.1095 
     13 O13         3.6927   10.4293   16.6882 O.2       1 <1>        -0.4046 
     14 O14         4.7570    6.0137   15.6908 O.2       1 <1>        -0.4046 
     15 C15         2.9399    7.7532   16.8394 C.2       1 <1>         0.0695 
     16 N16         2.5866    6.4915   16.8980 N.pl3     1 <1>        -0.2538 
     17 C17         1.4226    6.0912   17.4687 C.ar      1 <1>         0.0723 
     18 C18         0.9782    6.6366   18.6800 C.ar      1 <1>        -0.0356 
     19 C19        -0.2485    6.2449   19.2246 C.ar      1 <1>        -0.0698 
     20 C20        -1.0208    5.2734   18.5824 C.ar      1 <1>        -0.0585 
     21 C21        -0.5640    4.6955   17.3954 C.ar      1 <1>         0.0321 
     22 C22         0.6522    5.1050   16.8424 C.ar      1 <1>        -0.0219 
     23 H5          8.5256   10.3780   15.4732 H         1 <1>         0.0238 
     24 H6          7.9473    9.6277   13.9621 H         1 <1>         0.0238 
     25 H7          6.0864   10.9663   16.1429 H         1 <1>         0.0481 
     26 H8          5.5670   10.2921   14.5771 H         1 <1>         0.0481 
     27 H9          7.1047    6.8492   15.2585 H         1 <1>         0.0481 
     28 H10         6.2081    7.7731   14.0256 H         1 <1>         0.0481 
     29 H11         2.2875    8.5289   17.2459 H         1 <1>         0.1321 
     30 H12         3.2045    5.7693   16.4765 H         1 <1>         0.2281 
     31 H13         1.5846    7.3604   19.2145 H         1 <1>         0.0548 
     32 H14        -0.6009    6.6934   20.1488 H         1 <1>         0.0590 
     33 H33        -1.9727    4.9662   19.0037 H         1 <1>         0.0533 
     34 Cl34       -1.5166    3.4591   16.5999 Cl        1 <1>        -0.0735 
     35 H35         0.9955    4.6546   15.9172 H         1 <1>         0.0552 
@<TRIPOS>BOND
     1    8    1 1    
     2    8    2 1    
     3    1    3 1    
     4    1    4 1    
     5    1    5 1    
     6    2    6 1    
     7    2   23 1    
     8    7    8 1    
     9    8    9 1    
    10    9   10 1    
    11   11   10 1    
    12   12   11 1    
    13    7   12 1    
    14   12   13 2    
    15   10   14 2    
    16   11   15 2    
    17   15   16 1    
    18   16   17 1    
    19   17   18 ar   
    20   18   19 ar   
    21   19   20 ar   
    22   21   20 ar   
    23   22   21 ar   
    24   17   22 ar   
    25    2   24 1    
    26    7   25 1    
    27    7   26 1    
    28    9   27 1    
    29    9   28 1    
    30   15   29 1    
    31   16   30 1    
    32   18   31 1    
    33   19   32 1    
    34   20   33 1    
    35   21   34 1    
    36   22   35 1    
@<TRIPOS>SUBSTRUCTURE
     1 ****        7 TEMP              0 ****  ****    0 ROOT 
@<TRIPOS>NORMAL
@<TRIPOS>FF_PBC
FORCE_FIELD_SETUP_FEATURE Force Field Setup information
v1.0  0 0.000000 0.000000 0.000000 0.000000 0.000000 0.000000 NONE 0 0 0 0 1 0 0 0 0 0 0 0 0
