#	Name:			PISM01219
#	Creating user name:	14062
#	Creation time:		Sun Oct 20 21:33:04 2019

#	Modifying user name:	14062
#	Modification time:	Sun Oct 20 21:34:08 2019

@<TRIPOS>MOLECULE
PISM01219
   33    34     1     2     0
SMALL
GAST_HUCK


@<TRIPOS>ATOM
      1 C           3.2343   -1.7483    0.3640 C.2       1 <1>         0.2473 
      2 C           1.8748   -1.1205    0.4629 C.3       1 <1>         0.1185 
      3 O           3.3763   -2.9602    0.3898 O.2       1 <1>        -0.3692 
      4 O           4.2493   -0.8832    0.2382 O.3       1 <1>        -0.2763 
      5 S           1.4642   -0.4820   -1.1904 S.3       1 <1>         0.0032 
      6 C          -1.7325    1.6070   -0.3274 C.ar      1 <1>         0.2477 
      7 C          -2.2653    0.3272   -0.4198 C.ar      1 <1>         0.2522 
      8 C          -3.6256    0.0954   -0.2191 C.ar      1 <1>         0.0786 
      9 C          -4.4261    1.2071    0.0751 C.ar      1 <1>         0.1497 
     10 C          -3.8469    2.4819    0.1662 C.ar      1 <1>         0.1347 
     11 N          -2.5214    2.6620   -0.0369 N.ar      1 <1>        -0.1315 
     12 C          -0.1236    0.2204   -0.8137 C.ar      1 <1>         0.2855 
     13 N          -1.2548   -0.5061   -0.7136 N.ar      1 <1>        -0.0796 
     14 N          -0.3995    1.5329   -0.5708 N.ar      1 <1>        -0.2482 
     15 C          -5.9283    1.0447    0.2987 C.3       1 <1>         0.3953 
     16 F          -6.1579    0.9888    1.6349 F         1 <1>        -0.2237 
     17 F          -6.3703   -0.0973   -0.2899 F         1 <1>        -0.2237 
     18 F          -6.5827    2.1099   -0.2325 F         1 <1>        -0.2237 
     19 C           0.2371    2.2507   -0.5822 C.3       1 <1>         0.0277 
     20 C           5.5402   -1.5178    0.1366 C.3       1 <1>         0.0740 
     21 C           6.6110   -0.4099   -0.0043 C.3       1 <1>        -0.0371 
     22 H1          1.8997   -0.3017    1.1969 H         1 <1>         0.0672 
     23 H2          1.1317   -1.8698    0.7743 H         1 <1>         0.0672 
     24 H3         -4.0333   -0.9089   -0.2899 H         1 <1>         0.1590 
     25 H4         -4.4626    3.3459    0.4042 H         1 <1>         0.1664 
     26 H5          1.0386    2.0973    0.1666 H         1 <1>         0.0467 
     27 H6         -0.1241    3.2776   -0.3662 H         1 <1>         0.0467 
     28 H7          0.7200    2.3496   -1.5743 H         1 <1>         0.0467 
     29 H8          5.7539   -2.1153    1.0398 H         1 <1>         0.0610 
     30 H9          5.5828   -2.1767   -0.7480 H         1 <1>         0.0610 
     31 H10         7.6166   -0.8521   -0.0856 H         1 <1>         0.0255 
     32 H11         6.5832    0.2522    0.8751 H         1 <1>         0.0255 
     33 H12         6.4123    0.1911   -0.9053 H         1 <1>         0.0255 
@<TRIPOS>BOND
     1    1    2 1    
     2    1    3 2    
     3    4    1 1    
     4    6    7 ar   
     5    7    8 ar   
     6    8    9 ar   
     7   10    9 ar   
     8   11   10 ar   
     9    6   11 ar   
    10   12   13 ar   
    11   12   14 ar   
    12   14    6 ar   
    13   13    7 ar   
    14    5   12 1    
    15   15   16 1    
    16   15   17 1    
    17   15   18 1    
    18    9   15 1    
    19   14   19 1    
    20    2    5 1    
    21   20   21 1    
    22    4   20 1    
    23    2   22 1    
    24    2   23 1    
    25    8   24 1    
    26   10   25 1    
    27   19   26 1    
    28   19   27 1    
    29   19   28 1    
    30   20   29 1    
    31   20   30 1    
    32   21   31 1    
    33   21   32 1    
    34   21   33 1    
@<TRIPOS>SUBSTRUCTURE
     1 ****        1 TEMP              0 ****  ****    0 ROOT 
@<TRIPOS>NORMAL
@<TRIPOS>FF_PBC
FORCE_FIELD_SETUP_FEATURE Force Field Setup information
v1.0  0 0.000000 0.000000 0.000000 0.000000 0.000000 0.000000 NONE 0 0 0 0 1 0 0 0 0 0 0 0 0
@<TRIPOS>RENDERING_ATTRS
ANTIALIASED_LINES 
*
