#	Name:			PISM00111
#	Creating user name:	baoopengkun
#	Creation time:		Mon Dec 17 14:01:21 2018

#	Modifying user name:	baoopengkun
#	Modification time:	Mon Dec 17 14:03:23 2018

@<TRIPOS>MOLECULE
PISM00111
   57    60     1     1     0
SMALL
GAST_HUCK


@<TRIPOS>ATOM
      1 C1          4.4942    9.4763    8.9438 C.3       1 <1>        -0.0628 
      2 C2          6.0207    9.6108    8.7086 C.3       1 <1>        -0.0281 
      3 C3          6.3448    9.9478    7.2330 C.3       1 <1>         0.0692 
      4 O4          7.7716   10.0489    7.1050 O.3       1 <1>        -0.3200 
      5 C5          8.3976   10.3332    5.8815 C.ar      1 <1>         0.0961 
      6 C6          7.6654   10.5639    4.7083 C.ar      1 <1>        -0.0377 
      7 C7          8.3239   10.8419    3.5070 C.ar      1 <1>        -0.0693 
      8 C8          9.7188   10.8925    3.4680 C.ar      1 <1>        -0.0067 
      9 C9         10.4520   10.6649    4.6345 C.ar      1 <1>        -0.0594 
     10 C10         9.7961   10.3858    5.8390 C.ar      1 <1>        -0.0062 
     11 Br11       10.5918   11.2601    1.8757 Br        1 <1>        -0.0621 
     12 C12        10.5990   10.1338    7.1244 C.3       1 <1>         0.0226 
     13 C13        10.2306   11.1728    8.1306 C.2       1 <1>         0.0182 
     14 C14        10.6143   12.5541    7.7630 C.2       1 <1>         0.0899 
     15 O15        11.1219   12.7847    6.6777 O.2       1 <1>        -0.4145 
     16 C16        10.4109   13.6979    8.7048 C.3       1 <1>         0.0138 
     17 C17         9.0927   13.3960    9.4360 C.3       1 <1>        -0.0238 
     18 C18         9.1907   12.0249   10.1592 C.3       1 <1>         0.0139 
     19 C19         9.6171   10.8454    9.2822 C.2       1 <1>         0.0665 
     20 N20         9.4144    9.5792    9.6398 N.pl3     1 <1>        -0.2436 
     21 C21         9.7506    8.5717    8.8387 C.2       1 <1>         0.0665 
     22 C22        10.2928    8.7624    7.6236 C.2       1 <1>         0.0182 
     23 C23         9.5278    7.1131    9.2420 C.3       1 <1>         0.0139 
     24 C24        10.3883    6.0681    8.4838 C.3       1 <1>        -0.0238 
     25 C25        10.2121    6.2543    6.9660 C.3       1 <1>         0.0138 
     26 C26        10.6185    7.6664    6.6851 C.2       1 <1>         0.0899 
     27 O27        11.2341    7.9000    5.6578 O.2       1 <1>        -0.4145 
     28 C28         8.8184    9.2678   10.9668 C.3       1 <1>         0.0503 
     29 C29         9.9445    9.1599   12.0327 C.3       1 <1>        -0.0398 
     30 H1          4.0782    8.6718    8.3174 H         1 <1>         0.0231 
     31 H2          3.9826   10.4192    8.6951 H         1 <1>         0.0231 
     32 H3          4.2945    9.2370   10.0003 H         1 <1>         0.0231 
     33 H4          6.5190    8.6652    8.9761 H         1 <1>         0.0288 
     34 H5          6.4228   10.4093    9.3522 H         1 <1>         0.0288 
     35 H6          5.8692   10.9058    6.9672 H         1 <1>         0.0612 
     36 H7          5.9608    9.1440    6.5839 H         1 <1>         0.0612 
     37 H8          6.5832   10.5340    4.6982 H         1 <1>         0.0524 
     38 H9          7.7519   11.0190    2.6017 H         1 <1>         0.0548 
     39 H10        11.5351   10.7065    4.5978 H         1 <1>         0.0543 
     40 H11        11.6849   10.1937    6.9493 H         1 <1>         0.0507 
     41 H12        10.3263   14.6454    8.1475 H         1 <1>         0.0470 
     42 H13        11.2642   13.7633    9.3974 H         1 <1>         0.0470 
     43 H14         8.2761   13.3727    8.6913 H         1 <1>         0.0317 
     44 H15         8.8783   14.2050   10.1560 H         1 <1>         0.0317 
     45 H16         8.1623   11.9360   10.5326 H         1 <1>         0.0503 
     46 H17         9.8818   12.1174   11.0095 H         1 <1>         0.0503 
     47 H18         8.4644    6.8742    9.0809 H         1 <1>         0.0503 
     48 H19         9.7847    6.9097   10.2909 H         1 <1>         0.0503 
     49 H20        10.0944    5.0422    8.7659 H         1 <1>         0.0317 
     50 H21        11.4535    6.2049    8.7415 H         1 <1>         0.0317 
     51 H22         9.1701    6.1002    6.6455 H         1 <1>         0.0470 
     52 H23        10.8631    5.5505    6.4218 H         1 <1>         0.0470 
     53 H24         8.2148    8.3499   10.9674 H         1 <1>         0.0580 
     54 H25         8.0870    9.9814   11.3564 H         1 <1>         0.0580 
     55 H26        10.4087   10.1398   12.2103 H         1 <1>         0.0254 
     56 H27        10.7417    8.4743   11.7131 H         1 <1>         0.0254 
     57 H28         9.5347    8.7972   12.9890 H         1 <1>         0.0254 
@<TRIPOS>BOND
     1    2    1 1    
     2    2    3 1    
     3    3    4 1    
     4    4    5 1    
     5    5    6 ar   
     6    6    7 ar   
     7    7    8 ar   
     8    8    9 ar   
     9    9   10 ar   
    10    5   10 ar   
    11    8   11 1    
    12   10   12 1    
    13   12   13 1    
    14   13   14 1    
    15   14   15 2    
    16   14   16 1    
    17   16   17 1    
    18   17   18 1    
    19   18   19 1    
    20   13   19 2    
    21   19   20 1    
    22   20   21 1    
    23   21   22 2    
    24   12   22 1    
    25   21   23 1    
    26   23   24 1    
    27   24   25 1    
    28   25   26 1    
    29   22   26 1    
    30   26   27 2    
    31   20   28 1    
    32   28   29 1    
    33    1   30 1    
    34    1   31 1    
    35    1   32 1    
    36    2   33 1    
    37    2   34 1    
    38    3   35 1    
    39    3   36 1    
    40    6   37 1    
    41    7   38 1    
    42    9   39 1    
    43   12   40 1    
    44   16   41 1    
    45   16   42 1    
    46   17   43 1    
    47   17   44 1    
    48   18   45 1    
    49   18   46 1    
    50   23   47 1    
    51   23   48 1    
    52   24   49 1    
    53   24   50 1    
    54   25   51 1    
    55   25   52 1    
    56   28   53 1    
    57   28   54 1    
    58   29   55 1    
    59   29   56 1    
    60   29   57 1    
@<TRIPOS>SUBSTRUCTURE
     1 ****        2 TEMP              0 ****  ****    0 ROOT 
@<TRIPOS>NORMAL
@<TRIPOS>FF_PBC
FORCE_FIELD_SETUP_FEATURE Force Field Setup information
v1.0  0 0.000000 0.000000 0.000000 0.000000 0.000000 0.000000 NONE 0 0 0 0 1 0 0 0 0 0 0 0 0
