#	Name:			PISM00920
#	Creating user name:	baoopengkun
#	Creation time:		Fri Dec 14 10:31:16 2018

#	Modifying user name:	baoopengkun
#	Modification time:	Fri Dec 14 10:58:26 2018

@<TRIPOS>MOLECULE
PISM00920
   40    42     1     1     0
SMALL
GAST_HUCK


@<TRIPOS>ATOM
      1 C1         23.2927    8.6210  -10.2887 C.ar      1 <1>        -0.0145 
      2 C2         23.2007    7.3572   -9.6880 C.ar      1 <1>         0.0720 
      3 C3         24.2219    6.4092   -9.8789 C.ar      1 <1>        -0.0299 
      4 C4         25.3229    6.6730  -10.7041 C.ar      1 <1>        -0.0474 
      5 C5         25.3894    7.9309  -11.3004 C.ar      1 <1>         0.0608 
      6 C6         24.4003    8.8807  -11.0943 C.ar      1 <1>         0.0637 
      7 C7         24.8264   10.0902  -11.8886 C.2       1 <1>         0.2418 
      8 N8         25.9926    9.8335  -12.5128 N.am      1 <1>        -0.1418 
      9 C9         26.3941    8.5825  -12.2181 C.2       1 <1>         0.2355 
     10 O10        24.1889   11.1278  -11.9421 O.2       1 <1>        -0.3668 
     11 O11        27.4091    8.0411  -12.6209 O.2       1 <1>        -0.3726 
     12 C12        26.7249   10.7757  -13.3398 C.3       1 <1>         0.2214 
     13 O13        27.2679   11.8071  -12.4915 O.3       1 <1>        -0.2348 
     14 C14        26.6745   12.9290  -12.8817 C.2       1 <1>         0.2491 
     15 C15        25.7367   12.7899  -13.9906 C.2       1 <1>         0.0288 
     16 C16        25.7778   11.4896  -14.2743 C.2       1 <1>        -0.0059 
     17 C17        24.9165   13.8587  -14.6591 C.3       1 <1>        -0.0323 
     18 O18        26.9107   14.0005  -12.3502 O.2       1 <1>        -0.3691 
     19 N19        22.1215    7.0735   -8.9170 N.pl3     1 <1>        -0.2358 
     20 C20        21.4731    5.9431   -9.0242 C.2       1 <1>         0.2019 
     21 O21        21.7829    5.0794   -9.8280 O.2       1 <1>        -0.3789 
     22 C22        20.2830    5.7014   -8.1233 C.3       1 <1>         0.0427 
     23 C23        19.6335    4.3070   -8.3386 C.3       1 <1>        -0.0382 
     24 C24        18.4211    4.0931   -7.3951 C.3       1 <1>        -0.0631 
     25 H1         22.5301    9.3780  -10.1416 H         1 <1>         0.0597 
     26 H2         24.1717    5.4504   -9.3736 H         1 <1>         0.0574 
     27 H3         26.0991    5.9340  -10.8751 H         1 <1>         0.0651 
     28 H4         27.5372   10.2894  -13.9055 H         1 <1>         0.1152 
     29 H5         25.2030   11.0041  -15.0618 H         1 <1>         0.0702 
     30 H6         25.1618   13.9018  -15.7305 H         1 <1>         0.0347 
     31 H7         25.1225   14.8395  -14.2049 H         1 <1>         0.0347 
     32 H8         23.8471   13.6285  -14.5414 H         1 <1>         0.0347 
     33 H9         21.7947    7.7840   -8.2452 H         1 <1>         0.2126 
     34 H10        19.5344    6.4845   -8.3211 H         1 <1>         0.0511 
     35 H11        20.6164    5.7880   -7.0773 H         1 <1>         0.0511 
     36 H12        20.3841    3.5214   -8.1479 H         1 <1>         0.0288 
     37 H13        19.2978    4.2170   -9.3855 H         1 <1>         0.0288 
     38 H14        17.6492    4.8562   -7.5810 H         1 <1>         0.0231 
     39 H15        18.7364    4.1576   -6.3419 H         1 <1>         0.0231 
     40 H16        17.9787    3.0989   -7.5674 H         1 <1>         0.0231 
@<TRIPOS>BOND
     1    2    1 ar   
     2    2    3 ar   
     3    3    4 ar   
     4    4    5 ar   
     5    6    5 ar   
     6    1    6 ar   
     7    6    7 1    
     8    7    8 am   
     9    9    8 am   
    10    5    9 1    
    11    7   10 2    
    12    9   11 2    
    13    8   12 1    
    14   12   13 1    
    15   13   14 1    
    16   15   14 1    
    17   16   15 2    
    18   12   16 1    
    19   15   17 1    
    20   14   18 2    
    21    2   19 1    
    22   19   20 1    
    23   20   21 2    
    24   20   22 1    
    25   22   23 1    
    26   23   24 1    
    27    1   25 1    
    28    3   26 1    
    29    4   27 1    
    30   12   28 1    
    31   16   29 1    
    32   17   30 1    
    33   17   31 1    
    34   17   32 1    
    35   19   33 1    
    36   22   34 1    
    37   22   35 1    
    38   23   36 1    
    39   23   37 1    
    40   24   38 1    
    41   24   39 1    
    42   24   40 1    
@<TRIPOS>SUBSTRUCTURE
     1 ****        2 TEMP              0 ****  ****    0 ROOT 
@<TRIPOS>NORMAL
@<TRIPOS>FF_PBC
FORCE_FIELD_SETUP_FEATURE Force Field Setup information
v1.0  0 0.000000 0.000000 0.000000 0.000000 0.000000 0.000000 NONE 0 0 0 0 1 0 0 0 0 0 0 0 0
