#	Name:			PISM01182
#	Creating user name:	malab
#	Creation time:		Thu Apr 11 00:22:40 2019

#	Modifying user name:	malab
#	Modification time:	Thu Apr 11 00:32:59 2019

@<TRIPOS>MOLECULE
PISM01182
  120   123     1     2     0
SMALL
GAST_HUCK


@<TRIPOS>ATOM
      1 C1         33.2759   16.3750  -20.0039 C.3       1 <1>        -0.0507 
      2 C2         31.6772   14.4646  -19.4848 C.3       1 <1>         0.0000 
      3 H1         33.8863   16.1083  -19.1275 H         1 <1>         0.0000 
      4 H2         33.3711   17.4592  -20.1679 H         1 <1>         0.0000 
      5 H3         33.6764   15.8492  -20.8849 H         1 <1>         0.0000 
      6 H4         30.6587   14.1903  -19.1683 H         1 <1>         0.0000 
      7 C7         31.7882   15.9878  -19.7741 C.3       1 <1>        -0.0528 
      8 C8         30.9393   16.4155  -21.0080 C.3       1 <1>        -0.0530 
      9 C9         29.4173   16.1462  -20.8425 C.3       1 <1>        -0.0531 
     10 C10        28.6076   16.8041  -21.9925 C.3       1 <1>        -0.0531 
     11 C11        27.0892   16.4985  -21.8747 C.3       1 <1>        -0.0531 
     12 C12        26.2966   17.1873  -23.0186 C.3       1 <1>        -0.0531 
     13 C13        24.7744   16.8934  -22.9310 C.3       1 <1>        -0.0529 
     14 C14        24.0050   17.5926  -24.0853 C.3       1 <1>        -0.0505 
     15 C15        22.4845   17.2791  -24.0362 C.3       1 <1>        -0.0396 
     16 C16        21.7309   17.9581  -25.2114 C.3       1 <1>        -0.0148 
     17 C17        20.2776   17.5439  -25.2300 C.2       1 <1>        -0.0596 
     18 C18        19.2564   18.4035  -25.1074 C.2       1 <1>        -0.0030 
     19 C19        17.8377   17.9828  -25.1438 C.2       1 <1>         0.1764 
     20 O20        17.5997   16.7994  -25.3248 O.2       1 <1>        -0.4012 
     21 N21        16.8537   18.8979  -24.9727 N.am      1 <1>        -0.2811 
     22 C22        15.4468   18.4901  -24.9933 C.3       1 <1>         0.1197 
     23 C23        14.9662   17.9361  -26.3548 C.3       1 <1>         0.1108 
     24 O24        13.6507   17.3872  -26.1391 O.3       1 <1>        -0.3867 
     25 C25        14.4883   19.6450  -24.5951 C.3       1 <1>         0.1876 
     26 O26        15.0857   20.2891  -23.4502 O.3       1 <1>        -0.3180 
     27 C27        14.1895   21.1203  -22.6847 C.3       1 <1>         0.1879 
     28 C28        13.1520   20.3501  -21.8059 C.3       1 <1>         0.1211 
     29 N29        11.7314   20.6731  -22.0005 N.am      1 <1>        -0.2766 
     30 C30        11.2031   21.9277  -22.0124 C.2       1 <1>         0.1733 
     31 O31         9.9978   22.0644  -22.1527 O.2       1 <1>        -0.3974 
     32 C32        11.9850   23.2161  -21.8876 C.3       1 <1>         0.0257 
     33 C33        13.5099   20.3765  -20.2966 C.3       1 <1>         0.1111 
     34 O34        12.7686   19.3459  -19.6201 O.3       1 <1>        -0.3867 
     35 C35        15.0295   20.1306  -20.1624 C.3       1 <1>         0.1116 
     36 O36        15.3557   20.0070  -18.7669 O.3       1 <1>        -0.3865 
     37 C37        15.7763   21.3136  -20.8386 C.3       1 <1>         0.1130 
     38 O38        14.9934   21.9823  -21.8540 O.3       1 <1>        -0.3407 
     39 C39        17.2034   20.9223  -21.3080 C.3       1 <1>         0.0730 
     40 O40        17.1941   19.7777  -22.1742 O.3       1 <1>        -0.3924 
     41 C41        14.9311   19.0469  -27.4427 C.3       1 <1>         0.1095 
     42 O42        13.7491   18.7701  -28.2223 O.3       1 <1>        -0.3866 
     43 C43        14.4758   21.5394  -27.8723 C.3       1 <1>         0.0047 
     44 C44        14.9671   20.4885  -26.8357 C.3       1 <1>         0.0925 
     45 O45        14.1476   20.5742  -25.6524 O.3       1 <1>        -0.3429 
     46 C46        14.9660   23.0021  -27.6673 C.3       1 <1>         0.0864 
     47 C47        14.6881   23.6034  -26.2653 C.3       1 <1>         0.1161 
     48 O48        15.6494   23.1758  -25.2897 O.3       1 <1>        -0.3389 
     49 C49        15.5883   24.0929  -24.1839 C.3       1 <1>         0.1969 
     50 N50        16.8036   24.1207  -23.3589 N.pl3     1 <1>        -0.1665 
     51 C51        17.9473   23.7800  -23.9010 C.2       1 <1>         0.0550 
     52 C52        19.0944   23.7926  -23.2136 C.2       1 <1>         0.0141 
     53 C53        19.0431   24.2066  -21.8083 C.2       1 <1>         0.1916 
     54 O54        20.0685   24.2370  -21.1453 O.2       1 <1>        -0.4051 
     55 N55        17.8328   24.5348  -21.3221 N.am      1 <1>        -0.1858 
     56 C56        16.7237   24.4928  -22.1007 C.2       1 <1>         0.3248 
     57 O57        15.6537   24.8123  -21.6067 O.2       1 <1>        -0.3766 
     58 O58        14.3026   23.8514  -28.6249 O.3       1 <1>        -0.3891 
     59 C59        14.9091   25.1384  -26.2738 C.3       1 <1>         0.1145 
     60 C60        15.3307   25.4764  -24.8232 C.3       1 <1>         0.1357 
     61 O61        14.2952   26.1658  -24.1026 O.3       1 <1>        -0.3839 
     62 O62        13.7250   25.8551  -26.6582 O.3       1 <1>        -0.3864 
     63 H5         32.3651   14.1769  -18.6736 H         1 <1>         0.0000 
     64 H6         31.9379   13.8862  -20.3855 H         1 <1>         0.0000 
     65 H7         31.4275   16.5363  -18.8865 H         1 <1>         0.0000 
     66 H8         31.3026   15.8896  -21.9059 H         1 <1>         0.0000 
     67 H9         31.0868   17.4963  -21.1653 H         1 <1>         0.0000 
     68 H10        29.0724   16.5550  -19.8789 H         1 <1>         0.0000 
     69 H11        29.2204   15.0624  -20.8554 H         1 <1>         0.0000 
     70 H12        28.9806   16.4288  -22.9592 H         1 <1>         0.0000 
     71 H13        28.7591   17.8959  -21.9619 H         1 <1>         0.0000 
     72 H14        26.7178   16.8600  -20.9017 H         1 <1>         0.0000 
     73 H15        26.9289   15.4085  -21.9220 H         1 <1>         0.0000 
     74 H16        26.6793   16.8286  -23.9878 H         1 <1>         0.0000 
     75 H17        26.4574   18.2762  -22.9648 H         1 <1>         0.0000 
     76 H18        24.3842   17.2495  -21.9631 H         1 <1>         0.0000 
     77 H19        24.6127   15.8046  -22.9915 H         1 <1>         0.0000 
     78 H20        24.4121   17.2467  -25.0494 H         1 <1>         0.0000 
     79 H21        24.1539   18.6826  -24.0181 H         1 <1>         0.0000 
     80 H22        22.0597   17.6358  -23.0831 H         1 <1>         0.0000 
     81 H23        22.3412   16.1871  -24.0911 H         1 <1>         0.0000 
     82 H24        22.1767   17.6453  -26.1686 H         1 <1>         0.0000 
     83 H25        21.8400   19.0509  -25.1288 H         1 <1>         0.0000 
     84 H26        20.0743   16.4788  -25.3545 H         1 <1>         0.0000 
     85 H27        19.4685   19.4641  -24.9760 H         1 <1>         0.0000 
     86 H28        17.0773   19.8533  -24.7743 H         1 <1>         0.0000 
     87 H29        15.3406   17.6997  -24.2292 H         1 <1>         0.0000 
     88 H30        15.6077   17.1023  -26.6873 H         1 <1>         0.0000 
     89 H31        13.2773   17.0112  -26.9298 H         1 <1>         0.0000 
     90 H32        13.5180   19.1961  -24.3358 H         1 <1>         0.0000 
     91 H33        13.6470   21.7426  -23.4097 H         1 <1>         0.0000 
     92 H34        13.2799   19.2866  -22.0673 H         1 <1>         0.0000 
     93 H35        11.0945   19.9014  -22.0903 H         1 <1>         0.0000 
     94 H36        11.3717   23.9682  -21.3687 H         1 <1>         0.0000 
     95 H37        12.2055   23.6022  -22.8936 H         1 <1>         0.0000 
     96 H38        12.9188   23.1218  -21.3255 H         1 <1>         0.0000 
     97 H39        13.2571   21.3480  -19.8452 H         1 <1>         0.0000 
     98 H40        12.9721   19.3023  -18.6910 H         1 <1>         0.0000 
     99 H41        15.2639   19.1780  -20.6665 H         1 <1>         0.0000 
    100 H42        16.2758   19.8145  -18.6206 H         1 <1>         0.0000 
    101 H43        15.8958   22.1061  -20.0803 H         1 <1>         0.0000 
    102 H44        17.8198   20.6927  -20.4235 H         1 <1>         0.0000 
    103 H45        17.6526   21.7782  -21.8319 H         1 <1>         0.0000 
    104 H46        18.0684   19.5208  -22.4506 H         1 <1>         0.0000 
    105 H47        15.8178   18.9336  -28.0934 H         1 <1>         0.0000 
    106 H48        13.6671   19.2702  -29.0248 H         1 <1>         0.0000 
    107 H49        13.3738   21.5288  -27.8959 H         1 <1>         0.0000 
    108 H50        14.8495   21.2589  -28.8708 H         1 <1>         0.0000 
    109 H51        16.0048   20.7561  -26.5908 H         1 <1>         0.0000 
    110 H52        16.0573   23.0519  -27.8348 H         1 <1>         0.0000 
    111 H53        13.6646   23.3712  -25.9272 H         1 <1>         0.0000 
    112 H54        14.6996   23.8179  -23.6017 H         1 <1>         0.0000 
    113 H55        18.0169   23.4744  -24.9480 H         1 <1>         0.0000 
    114 H56        20.0461   23.5093  -23.6672 H         1 <1>         0.0000 
    115 H57        17.7559   24.8203  -20.3647 H         1 <1>         0.0000 
    116 H58        14.4728   23.6101  -29.5294 H         1 <1>         0.0000 
    117 H59        15.7444   25.3973  -26.9491 H         1 <1>         0.0000 
    118 H60        16.2557   26.0815  -24.8114 H         1 <1>         0.0000 
    119 H61        14.0827   27.0028  -24.5016 H         1 <1>         0.0000 
    120 H62        13.4443   25.6337  -27.5402 H         1 <1>         0.0000 
@<TRIPOS>BOND
     1    7    1 1    
     2    7    2 1    
     3    1    3 1    
     4    1    4 1    
     5    1    5 1    
     6    2    6 1    
     7    7    8 1    
     8    8    9 1    
     9    9   10 1    
    10   10   11 1    
    11   11   12 1    
    12   12   13 1    
    13   13   14 1    
    14   14   15 1    
    15   15   16 1    
    16   16   17 1    
    17   17   18 2    
    18   18   19 1    
    19   19   20 2    
    20   19   21 am   
    21   21   22 1    
    22   22   23 1    
    23   23   24 1    
    24   22   25 1    
    25   25   26 1    
    26   26   27 1    
    27   27   28 1    
    28   28   29 1    
    29   29   30 am   
    30   30   31 2    
    31   30   32 1    
    32   28   33 1    
    33   33   34 1    
    34   33   35 1    
    35   35   36 1    
    36   35   37 1    
    37   37   38 1    
    38   27   38 1    
    39   37   39 1    
    40   39   40 1    
    41   23   41 1    
    42   41   42 1    
    43   41   44 1    
    44   44   43 1    
    45   44   45 1    
    46   25   45 1    
    47   43   46 1    
    48   46   47 1    
    49   47   48 1    
    50   48   49 1    
    51   49   50 1    
    52   50   51 1    
    53   51   52 2    
    54   52   53 1    
    55   53   54 2    
    56   53   55 am   
    57   55   56 am   
    58   56   57 2    
    59   50   56 1    
    60   46   58 1    
    61   47   59 1    
    62   59   60 1    
    63   49   60 1    
    64   60   61 1    
    65   59   62 1    
    66    2   63 1    
    67    2   64 1    
    68    7   65 1    
    69    8   66 1    
    70    8   67 1    
    71    9   68 1    
    72    9   69 1    
    73   10   70 1    
    74   10   71 1    
    75   11   72 1    
    76   11   73 1    
    77   12   74 1    
    78   12   75 1    
    79   13   76 1    
    80   13   77 1    
    81   14   78 1    
    82   14   79 1    
    83   15   80 1    
    84   15   81 1    
    85   16   82 1    
    86   16   83 1    
    87   17   84 1    
    88   18   85 1    
    89   21   86 1    
    90   22   87 1    
    91   23   88 1    
    92   24   89 1    
    93   25   90 1    
    94   27   91 1    
    95   28   92 1    
    96   29   93 1    
    97   32   94 1    
    98   32   95 1    
    99   32   96 1    
   100   33   97 1    
   101   34   98 1    
   102   35   99 1    
   103   36  100 1    
   104   37  101 1    
   105   39  102 1    
   106   39  103 1    
   107   40  104 1    
   108   41  105 1    
   109   42  106 1    
   110   43  107 1    
   111   43  108 1    
   112   44  109 1    
   113   46  110 1    
   114   47  111 1    
   115   49  112 1    
   116   51  113 1    
   117   52  114 1    
   118   55  115 1    
   119   58  116 1    
   120   59  117 1    
   121   60  118 1    
   122   61  119 1    
   123   62  120 1    
@<TRIPOS>SUBSTRUCTURE
     1 ****        7 TEMP              0 ****  ****    0 ROOT 
@<TRIPOS>NORMAL
@<TRIPOS>FF_PBC
FORCE_FIELD_SETUP_FEATURE Force Field Setup information
v1.0  0 0.000000 0.000000 0.000000 0.000000 0.000000 0.000000 NONE 0 0 0 0 0 0 0 0 0 0 0 0 0
@<TRIPOS>RENDERING_ATTRS
ANTIALIASED_LINES 
*
