#	Name:			PISM01145
#	Creating user name:	14062
#	Creation time:		Sat Apr 06 10:26:49 2019

#	Modifying user name:	14062
#	Modification time:	Sat Apr 06 10:28:36 2019

@<TRIPOS>MOLECULE
PISM01145
   22    23     1     2     0
SMALL
GAST_HUCK


@<TRIPOS>ATOM
      1 C1        -10.3113    3.4319   -0.9541 C.2       1 BENZYL      0.0143 
      2 C1         -9.3146    3.7751   -0.1348 C.2       1 BENZYL     -0.0490 
      3 C2         -7.9007    3.6236   -0.6427 C.ar      1 BENZYL      0.0065 
      4 C3         -7.6985    3.1351   -1.9383 C.ar      1 BENZYL      0.1249 
      5 C4         -6.3967    2.9897   -2.4249 C.ar      1 BENZYL      0.0028 
      6 C5         -5.2993    3.3231   -1.6272 C.ar      1 BENZYL      0.1185 
      7 C6         -5.5078    3.8009   -0.3284 C.ar      1 BENZYL      0.1165 
      8 C7         -6.8070    3.9630    0.1599 C.ar      1 BENZYL     -0.0327 
      9 O9         -8.7773    2.7890   -2.7582 O.3       1 BENZYL     -0.2185 
     10 C10       -10.0307    2.9231   -2.3083 C.2       1 BENZYL      0.2561 
     11 O11        -4.4098    4.1163    0.4735 O.3       1 BENZYL     -0.3289 
     12 C12        -4.1077    3.1312    1.4758 C.3       1 BENZYL      0.0553 
     13 O13        -4.0059    3.1751   -2.1341 O.3       1 BENZYL     -0.3334 
     14 O14       -10.9583    2.6163   -3.0379 O.2       1 BENZYL     -0.3790 
     15 H1        -11.3498    3.5222   -0.6352 H         1 BENZYL      0.0576 
     16 H2         -9.5146    4.1525    0.8687 H         1 BENZYL      0.0725 
     17 H3         -6.2366    2.6152   -3.4299 H         1 BENZYL      0.0468 
     18 H4         -6.9600    4.3537    1.1600 H         1 BENZYL      0.0512 
     19 H5         -3.2252    3.4715    2.0374 H         1 BENZYL      0.0570 
     20 H6         -3.8764    2.1608    1.0092 H         1 BENZYL      0.0570 
     21 H7         -4.9449    3.0060    2.1798 H         1 BENZYL      0.0570 
     22 H8         -3.3472    3.5024   -1.5286 H         1 BENZYL      0.2475 
@<TRIPOS>BOND
     1    2    3 1    
     2    3    4 ar   
     3    3    8 ar   
     4    8    7 ar   
     5    7    6 ar   
     6    6    5 ar   
     7    5    4 ar   
     8    2    1 2    
     9    4    9 1    
    10    9   10 1    
    11    1   10 1    
    12    7   11 1    
    13   11   12 1    
    14    6   13 1    
    15   10   14 2    
    16    1   15 1    
    17    2   16 1    
    18    5   17 1    
    19    8   18 1    
    20   12   19 1    
    21   12   20 1    
    22   12   21 1    
    23   13   22 1    
@<TRIPOS>SUBSTRUCTURE
     1 BENZYL      2 PERM              0 ****  ****    0 ROOT 
@<TRIPOS>NORMAL
@<TRIPOS>FF_PBC
FORCE_FIELD_SETUP_FEATURE Force Field Setup information
v1.0  0 0.000000 0.000000 0.000000 0.000000 0.000000 0.000000 NONE 0 0 0 0 1 0 0 0 0 0 0 0 0
@<TRIPOS>RENDERING_ATTRS
ANTIALIASED_LINES 
*
