#	Name:			PISM00752
#	Creating user name:	baoopengkun
#	Creation time:		Wed Feb 27 16:39:37 2019

#	Modifying user name:	baoopengkun
#	Modification time:	Wed Feb 27 16:41:34 2019

@<TRIPOS>MOLECULE
PISM00752
   37    38     1     1     0
SMALL
GAST_HUCK


@<TRIPOS>ATOM
      1 C1        -13.7950    1.3496   20.6228 C.3       1 <1>        -0.0388 
      2 C2        -13.7467    2.9085   20.6987 C.3       1 <1>        -0.0253 
      3 C3        -15.0070    3.3797   20.0034 C.2       1 <1>        -0.0800 
      4 C4        -16.2629    3.4247   20.8458 C.3       1 <1>        -0.0402 
      5 C5        -14.9492    3.6424   18.6882 C.2       1 <1>        -0.0738 
      6 C6        -16.1211    3.7816   17.7565 C.3       1 <1>         0.1067 
      7 C7        -15.9221    2.8863   16.4823 C.3       1 <1>         0.0375 
      8 C8        -16.1815    1.3605   16.7219 C.3       1 <1>        -0.0276 
      9 C9        -14.8886    0.5042   16.9349 C.3       1 <1>        -0.0263 
     10 C10       -14.0050    0.8883   18.1103 C.2       1 <1>        -0.0837 
     11 C11       -12.5734    1.2514   17.7726 C.3       1 <1>        -0.0404 
     12 C12       -14.5014    0.8887   19.3574 C.2       1 <1>        -0.1071 
     13 O13       -16.3577    5.1351   17.3284 O.3       1 <1>        -0.2663 
     14 C14       -16.8240    3.6628   15.5560 C.2       1 <1>         0.0431 
     15 C15       -16.9262    4.9992   16.1395 C.2       1 <1>         0.2658 
     16 O16       -17.4701    5.9326   15.5746 O.2       1 <1>        -0.3550 
     17 C17       -17.4032    3.2489   14.4222 C.2       1 <1>        -0.0872 
     18 H1        -14.3901    0.9885   21.4776 H         1 <1>         0.0361 
     19 H2        -12.7952    0.9027   20.7305 H         1 <1>         0.0361 
     20 H3        -13.6753    3.2652   21.7383 H         1 <1>         0.0425 
     21 H4        -12.8481    3.2738   20.1782 H         1 <1>         0.0425 
     22 H5        -17.0132    4.1189   20.4417 H         1 <1>         0.0375 
     23 H6        -16.0302    3.7731   21.8633 H         1 <1>         0.0375 
     24 H7        -16.6994    2.4184   20.9140 H         1 <1>         0.0375 
     25 H8        -13.9815    3.7103   18.1961 H         1 <1>         0.0272 
     26 H9        -17.0570    3.4541   18.2377 H         1 <1>         0.0749 
     27 H10       -14.9164    3.0252   16.0544 H         1 <1>         0.0515 
     28 H11       -16.6748    0.9344   15.8360 H         1 <1>         0.0314 
     29 H12       -16.8780    1.2122   17.5612 H         1 <1>         0.0314 
     30 H13       -14.3025    0.5404   16.0016 H         1 <1>         0.0412 
     31 H14       -15.1789   -0.5492   17.0835 H         1 <1>         0.0412 
     32 H15       -12.0876    0.3701   17.3255 H         1 <1>         0.0375 
     33 H16       -11.9720    1.5585   18.6380 H         1 <1>         0.0375 
     34 H17       -12.5539    2.0705   17.0393 H         1 <1>         0.0375 
     35 H18       -15.5340    0.5581   19.4799 H         1 <1>         0.0244 
     36 H19       -18.0318    3.9398   13.8621 H         1 <1>         0.0464 
     37 H20       -17.2753    2.2487   14.0159 H         1 <1>         0.0464 
@<TRIPOS>BOND
     1    2    1 1    
     2    2    3 1    
     3    3    4 1    
     4    3    5 2    
     5    5    6 1    
     6    6    7 1    
     7    7    8 1    
     8    8    9 1    
     9    9   10 1    
    10   10   11 1    
    11    1   12 1    
    12   10   12 2    
    13    6   13 1    
    14    7   14 1    
    15   14   15 1    
    16   13   15 1    
    17   15   16 2    
    18   14   17 2    
    19    1   18 1    
    20    1   19 1    
    21    2   20 1    
    22    2   21 1    
    23    4   22 1    
    24    4   23 1    
    25    4   24 1    
    26    5   25 1    
    27    6   26 1    
    28    7   27 1    
    29    8   28 1    
    30    8   29 1    
    31    9   30 1    
    32    9   31 1    
    33   11   32 1    
    34   11   33 1    
    35   11   34 1    
    36   12   35 1    
    37   17   36 1    
    38   17   37 1    
@<TRIPOS>SUBSTRUCTURE
     1 ****        2 TEMP              0 ****  ****    0 ROOT 
@<TRIPOS>NORMAL
@<TRIPOS>FF_PBC
FORCE_FIELD_SETUP_FEATURE Force Field Setup information
v1.0  0 0.000000 0.000000 0.000000 0.000000 0.000000 0.000000 NONE 0 0 0 0 1 0 0 0 0 0 0 0 0
