#	Name:			PISM01020
#	Creating user name:	malab
#	Creation time:		Mon Jul 01 22:14:48 2019

#	Modifying user name:	malab
#	Modification time:	Mon Jul 01 22:31:52 2019

@<TRIPOS>MOLECULE
PISM01020
   35    37     2     1     0
SMALL
GAST_HUCK


@<TRIPOS>ATOM
      1 C1          5.7606   17.9286   29.4241 C.ar      1 NO2        -0.0320 
      2 C2          5.4789   18.0362   27.0320 C.ar      1 NO2        -0.0320 
      3 C3          5.2230   19.4078   27.1216 C.ar      1 NO2        -0.0383 
      4 C4          5.2505   20.0460   28.3641 C.ar      1 NO2         0.0814 
      5 C5          5.5254   19.3037   29.5154 C.ar      1 NO2        -0.0383 
      6 C6          5.7421   17.2812   28.1821 C.ar      1 NO2         0.0513 
      7 N7          5.9766   15.9450   28.0933 N.pl3     1 NO2        -0.2992 
      8 C8          7.0132   15.3156   28.9108 C.3       1 NO2         0.0495 
      9 C9          7.5144   14.0059   28.2511 C.3       1 NO2         0.0565 
     10 N10         6.3633   13.1146   28.0827 N.am      1 NO2        -0.2391 
     11 C11         5.0640   13.6665   27.6969 C.3       1 NO2         0.0565 
     12 C12         5.2149   15.1149   27.1609 C.3       1 NO2         0.0495 
     13 C13         6.5241   11.7758   28.2913 C.2       1 NO2         0.3534 
     14 O14         7.6513   11.3469   28.4848 O.2       1 NO2        -0.3616 
     15 N15         5.5300   10.9224   28.3016 N.pl3     1 NO2        -0.0704 
     16 N16         4.2036   11.1409   28.1557 N.2       1 NO2        -0.0739 
     17 N17         3.4926   10.0046   28.2370 N.2       1 NO2        -0.2236 
     18 C18         4.5104    9.0108   28.4614 C.2       1 NO2         0.0266 
     19 C19         5.6895    9.6376   28.4879 C.2       1 NO2         0.0968 
     20 C           4.9969   21.4615   28.4574 C.1       2 CN          0.0864 
     21 N           4.7932   22.5987   28.5322 N.1       2 CN         -0.3392 
     22 H1          5.9509   17.3701   30.3335 H         1 NO2         0.0545 
     23 H2          5.4775   17.5670   26.0544 H         1 NO2         0.0545 
     24 H3          5.0047   19.9792   26.2244 H         1 NO2         0.0685 
     25 H4          5.5544   19.7964   30.4827 H         1 NO2         0.0685 
     26 H5          6.5907   15.0629   29.8966 H         1 NO2         0.0539 
     27 H6          7.8649   16.0029   29.0506 H         1 NO2         0.0539 
     28 H7          8.3015   13.5873   28.9011 H         1 NO2         0.0542 
     29 H8          7.9593   14.2239   27.2675 H         1 NO2         0.0542 
     30 H9          4.3957   13.6761   28.5733 H         1 NO2         0.0542 
     31 H10         4.6042   13.0838   26.8816 H         1 NO2         0.0542 
     32 H11         4.2099   15.5347   26.9832 H         1 NO2         0.0539 
     33 H12         5.7586   15.0882   26.2024 H         1 NO2         0.0539 
     34 H13         4.3367    7.9425   28.5860 H         1 NO2         0.0560 
     35 H14         6.6321    9.1114   28.6459 H         1 NO2         0.1050 
@<TRIPOS>BOND
     1    1    6 ar   
     2    2    6 ar   
     3    3    2 ar   
     4    4    3 ar   
     5    4    5 ar   
     6    5    1 ar   
     7    6    7 1    
     8    7    8 1    
     9    8    9 1    
    10    9   10 1    
    11   11   10 1    
    12   12   11 1    
    13    7   12 1    
    14   10   13 am   
    15   13   14 2    
    16   13   15 1    
    17   15   16 1    
    18   16   17 2    
    19   18   17 1    
    20   19   18 2    
    21   15   19 1    
    22   20   21 3    
    23    4   20 1    
    24    1   22 1    
    25    2   23 1    
    26    3   24 1    
    27    5   25 1    
    28    8   26 1    
    29    8   27 1    
    30    9   28 1    
    31    9   29 1    
    32   11   30 1    
    33   11   31 1    
    34   12   32 1    
    35   12   33 1    
    36   18   34 1    
    37   19   35 1    
@<TRIPOS>SUBSTRUCTURE
     1 NO2         4 PERM              0 ****  ****    1 ROOT 
     2 CN         20 PERM              0 ****  ****    1  
@<TRIPOS>NORMAL
@<TRIPOS>FF_PBC
FORCE_FIELD_SETUP_FEATURE Force Field Setup information
v1.0  0 0.000000 0.000000 0.000000 0.000000 0.000000 0.000000 NONE 0 0 0 0 1 0 0 0 0 0 0 0 0
