#	Name:			PISM00035
#	Creating user name:	baoopengkun
#	Creation time:		Sat Nov 17 17:54:16 2018

#	Modifying user name:	baoopengkun
#	Modification time:	Sat Nov 17 18:03:39 2018

@<TRIPOS>MOLECULE
PISM00035
   26    27     1     2     0
SMALL
GAST_HUCK


@<TRIPOS>ATOM
      1 O1         -3.8786   -7.5687   10.1474 O.2       1 <1>        -0.3496 
      2 C2         -2.8694   -7.0913    9.6579 C.2       1 <1>         0.2560 
      3 C3         -1.5464   -7.1355   10.2948 C.2       1 <1>         0.0409 
      4 C4         -0.7147   -6.4989    9.4650 C.2       1 <1>         0.0409 
      5 C5         -1.5322   -6.0698    8.3227 C.2       1 <1>         0.2560 
      6 N6         -2.7523   -6.4639    8.5268 N.pl3     1 <1>        -0.1440 
      7 C7         -3.7745   -6.2288    7.6707 C.ar      1 <1>         0.0764 
      8 C8         -4.5238   -7.2841    7.1340 C.ar      1 <1>        -0.0329 
      9 C9         -5.6310   -6.9914    6.3307 C.ar      1 <1>        -0.0810 
     10 C10        -5.9408   -5.6695    5.9993 C.ar      1 <1>        -0.0566 
     11 C11        -5.1538   -4.6139    6.4756 C.ar      1 <1>         0.0989 
     12 C12        -4.0785   -4.9089    7.3215 C.ar      1 <1>        -0.0201 
     13 O13        -1.1010   -5.4524    7.3639 O.2       1 <1>        -0.3496 
     14 C14        -4.1525   -8.7513    7.3914 C.3       1 <1>        -0.0396 
     15 N15        -5.4246   -3.3289    6.1290 N.pl3     1 <1>         0.0250 
     16 O16        -6.3597   -3.0633    5.4048 O.2       1 <1>        -0.1283 
     17 O17        -4.6269   -2.2741    6.5982 O.3       1 <1>        -0.2410 
     18 H3         -6.2578   -7.7947    5.9559 H         1 <1>         0.0493 
     19 H1         -1.3093   -7.5976   11.2518 H         1 <1>         0.0816 
     20 H2          0.3525   -6.3251    9.5930 H         1 <1>         0.0816 
     21 H4         -6.8002   -5.4744    5.3658 H         1 <1>         0.0402 
     22 H5         -3.4666   -4.1091    7.7236 H         1 <1>         0.0410 
     23 H6         -3.0775   -8.8631    7.5961 H         1 <1>         0.0344 
     24 H7         -4.3914   -9.3659    6.5104 H         1 <1>         0.0344 
     25 H8         -4.7282   -9.1272    8.2499 H         1 <1>         0.0344 
     26 H9         -4.1497   -1.8810    5.8759 H         1 <1>         0.2519 
@<TRIPOS>BOND
     1    2    1 2    
     2    2    3 1    
     3    3    4 2    
     4    4    5 1    
     5    5    6 1    
     6    2    6 1    
     7    6    7 1    
     8    7    8 ar   
     9    8    9 ar   
    10    9   10 ar   
    11   10   11 ar   
    12   11   12 ar   
    13    7   12 ar   
    14    5   13 2    
    15    8   14 1    
    16   11   15 1    
    17   15   16 2    
    18   15   17 1    
    19    9   18 1    
    20    3   19 1    
    21    4   20 1    
    22   10   21 1    
    23   12   22 1    
    24   14   23 1    
    25   14   24 1    
    26   14   25 1    
    27   17   26 1    
@<TRIPOS>SUBSTRUCTURE
     1 ****        2 TEMP              0 ****  ****    0 ROOT 
@<TRIPOS>NORMAL
@<TRIPOS>FF_PBC
FORCE_FIELD_SETUP_FEATURE Force Field Setup information
v1.0  0 0.000000 0.000000 0.000000 0.000000 0.000000 0.000000 NONE 0 0 0 0 1 0 0 0 0 0 0 0 0
@<TRIPOS>RENDERING_ATTRS
ANTIALIASED_LINES 
*
