#	Name:			PISM00461
#	Creating user name:	Administrator
#	Creation time:		Sat Feb 23 00:08:02 2019

#	Modifying user name:	Administrator
#	Modification time:	Sat Feb 23 00:19:48 2019

@<TRIPOS>MOLECULE
PISM00461
   42    43     1     2     0
SMALL
GAST_HUCK


@<TRIPOS>ATOM
      1 C1          6.0969    0.7287    3.5566 C.2       1 PHENYL     -0.0038 
      2 N2          5.3409    0.1053    2.7556 N.2       1 PHENYL     -0.2468 
      3 N3          4.3535    0.9155    2.3219 N.pl3     1 PHENYL     -0.2257 
      4 C4          4.4785    2.0963    2.8682 C.2       1 PHENYL      0.0587 
      5 C5          5.5519    2.0874    3.6720 C.2       1 PHENYL     -0.0133 
      6 C6          6.1350    3.1714    4.5432 C.3       1 PHENYL      0.0433 
      7 N7          6.1909    2.6982    5.9195 N.am      1 PHENYL     -0.2366 
      8 S8          7.7130    3.0334    6.9404 S.o2      1 PHENYL      0.0517 
      9 O9          8.8416    3.2274    6.0513 O.2       1 PHENYL     -0.1531 
     10 O10         7.7876    2.0495    8.0017 O.2       1 PHENYL     -0.1531 
     11 C11         7.2386    4.6222    7.6495 C.3       1 PHENYL      0.1182 
     12 C           8.1940    5.1827    8.7151 C.ar      1 PHENYL     -0.0199 
     13 C           9.5027    4.7089    8.8745 C.ar      1 PHENYL     -0.0449 
     14 C          10.3349    5.2410    9.8635 C.ar      1 PHENYL      0.0338 
     15 C           9.8653    6.2518   10.7049 C.ar      1 PHENYL     -0.0548 
     16 C           8.5631    6.7340   10.5509 C.ar      1 PHENYL     -0.0680 
     17 C           7.7356    6.2035    9.5569 C.ar      1 PHENYL     -0.0586 
     18 C18         7.3033    0.1370    4.2294 C.3       1 PHENYL     -0.0319 
     19 C19         3.5191    3.2254    2.5817 C.3       1 PHENYL     -0.0085 
     20 C20         3.3147    0.4933    1.3942 C.3       1 PHENYL      0.0529 
     21 C21         5.0746    2.0006    6.5423 C.3       1 PHENYL      0.0190 
     22 H22        10.5108    6.6619   11.4744 H         1 PHENYL      0.0565 
     23 H1          5.5571    4.1041    4.5290 H         1 PHENYL      0.0535 
     24 H2          7.1450    3.3926    4.1692 H         1 PHENYL      0.0535 
     25 H3          6.2460    4.4774    8.1016 H         1 PHENYL      0.0682 
     26 H4          7.1526    5.3481    6.8279 H         1 PHENYL      0.0682 
     27 H5          9.8962    3.9261    8.2387 H         1 PHENYL      0.0562 
     28 Cl28       11.9712    4.6422   10.0492 Cl        1 PHENYL     -0.0725 
     29 H7          8.1966    7.5203   11.2036 H         1 PHENYL      0.0599 
     30 H8          6.7280    6.5922    9.4426 H         1 PHENYL      0.0559 
     31 H9          7.8199    0.8814    4.8513 H         1 PHENYL      0.0367 
     32 H10         7.9996   -0.2317    3.4622 H         1 PHENYL      0.0367 
     33 H11         6.9894   -0.7040    4.8650 H         1 PHENYL      0.0367 
     34 H12         3.8233    4.1805    3.0278 H         1 PHENYL      0.0412 
     35 H13         2.5269    2.9616    2.9754 H         1 PHENYL      0.0412 
     36 H14         3.4463    3.3707    1.4941 H         1 PHENYL      0.0412 
     37 H15         2.3152    0.7010    1.8044 H         1 PHENYL      0.0585 
     38 H16         3.4030   -0.5896    1.2190 H         1 PHENYL      0.0585 
     39 H17         3.4383    1.0164    0.4344 H         1 PHENYL      0.0585 
     40 H18         5.0950    0.9385    6.2573 H         1 PHENYL      0.0443 
     41 H19         4.1191    2.4402    6.2189 H         1 PHENYL      0.0443 
     42 H20         5.1385    2.0708    7.6379 H         1 PHENYL      0.0443 
@<TRIPOS>BOND
     1    1    2 2    
     2    2    3 1    
     3    4    3 1    
     4    5    4 2    
     5    5    1 1    
     6    6    5 1    
     7    7    6 1    
     8    8    7 1    
     9    8    9 2    
    10    8   10 2    
    11   11    8 1    
    12   12   13 ar   
    13   12   17 ar   
    14   17   16 ar   
    15   16   15 ar   
    16   14   15 ar   
    17   13   14 ar   
    18   12   11 1    
    19    1   18 1    
    20    4   19 1    
    21    3   20 1    
    22    7   21 1    
    23   15   22 1    
    24    6   23 1    
    25    6   24 1    
    26   11   25 1    
    27   11   26 1    
    28   13   27 1    
    29   14   28 1    
    30   16   29 1    
    31   17   30 1    
    32   18   31 1    
    33   18   32 1    
    34   18   33 1    
    35   19   34 1    
    36   19   35 1    
    37   19   36 1    
    38   20   37 1    
    39   20   38 1    
    40   20   39 1    
    41   21   40 1    
    42   21   41 1    
    43   21   42 1    
@<TRIPOS>SUBSTRUCTURE
     1 PHENYL     12 PERM              0 ****  ****    0 ROOT 
@<TRIPOS>NORMAL
@<TRIPOS>FF_PBC
FORCE_FIELD_SETUP_FEATURE Force Field Setup information
v1.0  0 0.000000 0.000000 0.000000 0.000000 0.000000 0.000000 NONE 0 0 0 0 1 0 0 0 0 0 0 0 0
@<TRIPOS>RENDERING_ATTRS
ANTIALIASED_LINES 
*
