#	Name:			PISM01027
#	Creating user name:	14062
#	Creation time:		Sat Oct 19 23:50:29 2019

#	Modifying user name:	14062
#	Modification time:	Sun Oct 20 00:01:12 2019

@<TRIPOS>MOLECULE
PISM01027
   28    30     2     1     0
SMALL
GAST_HUCK


@<TRIPOS>ATOM
      1 C1          2.2398    0.3739   -4.4229 C.2       1 BENZYL      0.1295 
      2 N2          3.2987    0.8304   -3.7990 N.pl3     1 BENZYL     -0.2231 
      3 C2          4.4951    0.9801   -4.4350 C.ar      1 BENZYL      0.0990 
      4 C3          4.6292    0.5771   -5.7674 C.ar      1 BENZYL      0.0813 
      5 C4          5.8541    0.6529   -6.4374 C.ar      1 BENZYL     -0.0550 
      6 C5          6.9712    1.1685   -5.7768 C.ar      1 BENZYL     -0.0735 
      7 C6          6.8458    1.6183   -4.4603 C.ar      1 BENZYL     -0.0722 
      8 C7          5.6148    1.5399   -3.8010 C.ar      1 BENZYL     -0.0333 
      9 N9          2.2575    0.0024   -5.7214 N.am      1 BENZYL     -0.2390 
     10 C10         3.3843    0.0624   -6.4450 C.2       1 BENZYL      0.2251 
     11 O11         3.4116   -0.2846   -7.6138 O.2       1 BENZYL     -0.3867 
     12 Cl12        2.7690    2.1948    1.9212 Cl        2 BENZYL     -0.0879 
     13 H1          1.2907    0.2744   -3.8864 H         1 BENZYL      0.0850 
     14 C2          3.1765    1.1439   -2.4862 C.ar      2 BENZYL      0.0734 
     15 C3          2.4145    2.2499   -2.0972 C.ar      2 BENZYL     -0.0416 
     16 C4          2.2870    2.5712   -0.7427 C.ar      2 BENZYL     -0.0644 
     17 C5          2.9244    1.7889    0.2243 C.ar      2 BENZYL      0.0199 
     18 C6          3.6858    0.6827   -0.1628 C.ar      2 BENZYL     -0.0644 
     19 C7          3.8081    0.3582   -1.5170 C.ar      2 BENZYL     -0.0416 
     20 H2          5.9383    0.3142   -7.4653 H         1 BENZYL      0.0587 
     21 H3          7.9299    1.2211   -6.2841 H         1 BENZYL      0.0500 
     22 H4          7.7097    2.0319   -3.9480 H         1 BENZYL      0.0607 
     23 H5          5.5541    1.9288   -2.7906 H         1 BENZYL      0.0507 
     24 H6          1.4345   -0.3397   -6.1773 H         1 BENZYL      0.2339 
     25 H7          1.9245    2.8599   -2.8492 H         2 BENZYL      0.0510 
     26 H8          1.6940    3.4282   -0.4397 H         2 BENZYL      0.0568 
     27 H9          4.1806    0.0769    0.5894 H         2 BENZYL      0.0568 
     28 H10         4.3930   -0.5046   -1.8193 H         2 BENZYL      0.0510 
@<TRIPOS>BOND
     1    2    3 1    
     2    3    4 ar   
     3    3    8 ar   
     4    8    7 ar   
     5    7    6 ar   
     6    6    5 ar   
     7    5    4 ar   
     8    2    1 1    
     9    1    9 am   
    10    9   10 am   
    11    4   10 1    
    12   10   11 2    
    13   17   12 1    
    14   14    2 1    
    15   14   15 ar   
    16   14   19 ar   
    17   19   18 ar   
    18   18   17 ar   
    19   17   16 ar   
    20   16   15 ar   
    21    1   13 1    
    22    5   20 1    
    23    6   21 1    
    24    7   22 1    
    25    8   23 1    
    26    9   24 1    
    27   15   25 1    
    28   16   26 1    
    29   18   27 1    
    30   19   28 1    
@<TRIPOS>SUBSTRUCTURE
     1 BENZYL      2 PERM              0 ****  ****    1  
     2 BENZYL     14 PERM              0 ****  ****    1 ROOT 
@<TRIPOS>NORMAL
@<TRIPOS>FF_PBC
FORCE_FIELD_SETUP_FEATURE Force Field Setup information
v1.0  0 0.000000 0.000000 0.000000 0.000000 0.000000 0.000000 NONE 0 0 0 0 1 0 0 0 0 0 0 0 0
