#	Name:			PISM00951
#	Creating user name:	baoopengkun
#	Creation time:		Thu Dec 13 10:09:20 2018

#	Modifying user name:	baoopengkun
#	Modification time:	Thu Dec 13 10:12:25 2018

@<TRIPOS>MOLECULE
PISM00951
   48    50     1     1     0
SMALL
GAST_HUCK


@<TRIPOS>ATOM
      1 C1         -9.9011   -2.6761   -1.5992 C.3       1 <1>        -0.0575 
      2 C2         -8.8439   -1.6413   -2.0834 C.3       1 <1>        -0.0059 
      3 C3         -7.8112   -2.3915   -2.9855 C.3       1 <1>        -0.0575 
      4 C4         -8.0669   -1.1080   -0.8383 C.3       1 <1>        -0.0575 
      5 C5         -9.5118   -0.4699   -2.8979 C.3       1 <1>         0.1220 
      6 O6        -10.2474   -0.9560   -4.0412 O.3       1 <1>        -0.3851 
      7 C7        -10.4599    0.4695   -2.0861 C.3       1 <1>         0.2335 
      8 N8        -11.7098   -0.1608   -1.6812 N.pl3     1 <1>        -0.1431 
      9 N9        -12.3978   -1.1289   -2.3509 N.2       1 <1>        -0.1875 
     10 C10       -13.4602   -1.5085   -1.7451 C.2       1 <1>         0.0619 
     11 N11       -13.4082   -0.6800   -0.5725 N.2       1 <1>        -0.2869 
     12 C12       -12.3928    0.0564   -0.5987 C.2       1 <1>         0.1311 
     13 O13       -10.7678    1.6795   -2.8047 O.3       1 <1>        -0.2777 
     14 C14       -11.5053    1.5059   -3.9756 C.ar      1 <1>         0.0970 
     15 C15       -12.8906    1.3288   -3.9179 C.ar      1 <1>        -0.0310 
     16 C16       -13.6151    1.0869   -5.0885 C.ar      1 <1>        -0.0616 
     17 C17       -12.9615    1.0603   -6.3246 C.ar      1 <1>        -0.0279 
     18 C18       -11.5837    1.2911   -6.3870 C.ar      1 <1>        -0.0616 
     19 C19       -10.8579    1.5160   -5.2138 C.ar      1 <1>        -0.0310 
     20 C20       -13.7265    0.7876   -7.5665 C.ar      1 <1>        -0.0247 
     21 C21       -13.3476   -0.2663   -8.4040 C.ar      1 <1>        -0.0567 
     22 C22       -14.0653   -0.5245   -9.5755 C.ar      1 <1>        -0.0629 
     23 C23       -15.1683    0.2672   -9.9083 C.ar      1 <1>        -0.0632 
     24 C24       -15.5502    1.3196   -9.0710 C.ar      1 <1>        -0.0629 
     25 C25       -14.8274    1.5815   -7.9033 C.ar      1 <1>        -0.0567 
     26 H1        -10.5028   -3.0408   -2.4454 H         1 <1>         0.0236 
     27 H2        -10.5758   -2.2404   -0.8493 H         1 <1>         0.0236 
     28 H3         -9.4062   -3.5416   -1.1324 H         1 <1>         0.0236 
     29 H4         -7.2520   -3.1438   -2.4081 H         1 <1>         0.0236 
     30 H5         -7.0825   -1.6847   -3.4110 H         1 <1>         0.0236 
     31 H6         -8.2989   -2.9304   -3.8101 H         1 <1>         0.0236 
     32 H7         -7.4764   -1.9111   -0.3711 H         1 <1>         0.0236 
     33 H8         -8.7423   -0.7285   -0.0585 H         1 <1>         0.0236 
     34 H9         -7.3752   -0.3033   -1.1310 H         1 <1>         0.0236 
     35 H10        -8.7073    0.1937   -3.2605 H         1 <1>         0.0661 
     36 H11        -9.7250   -1.3723   -4.7165 H         1 <1>         0.2101 
     37 H12        -9.9355    0.8491   -1.1994 H         1 <1>         0.1081 
     38 H13       -14.1965   -2.2542   -2.0409 H         1 <1>         0.0864 
     39 H14       -12.1435    0.7687    0.1870 H         1 <1>         0.1362 
     40 H15       -13.4040    1.3795   -2.9640 H         1 <1>         0.0548 
     41 H16       -14.6859    0.9172   -5.0349 H         1 <1>         0.0601 
     42 H17       -11.0759    1.2963   -7.3463 H         1 <1>         0.0601 
     43 H18        -9.7893    1.6959   -5.2596 H         1 <1>         0.0548 
     44 H19       -12.4962   -0.8875   -8.1439 H         1 <1>         0.0609 
     45 H20       -13.7665   -1.3405  -10.2265 H         1 <1>         0.0614 
     46 H21       -15.7281    0.0649  -10.8164 H         1 <1>         0.0605 
     47 H22       -16.4077    1.9339   -9.3279 H         1 <1>         0.0614 
     48 H23       -15.1213    2.4042   -7.2591 H         1 <1>         0.0609 
@<TRIPOS>BOND
     1    2    1 1    
     2    2    3 1    
     3    2    4 1    
     4    2    5 1    
     5    5    6 1    
     6    5    7 1    
     7    7    8 1    
     8    8    9 1    
     9    9   10 2    
    10   10   11 1    
    11   11   12 2    
    12    8   12 1    
    13    7   13 1    
    14   13   14 1    
    15   14   15 ar   
    16   15   16 ar   
    17   16   17 ar   
    18   17   18 ar   
    19   18   19 ar   
    20   14   19 ar   
    21   17   20 1    
    22   20   21 ar   
    23   21   22 ar   
    24   22   23 ar   
    25   23   24 ar   
    26   24   25 ar   
    27   20   25 ar   
    28    1   26 1    
    29    1   27 1    
    30    1   28 1    
    31    3   29 1    
    32    3   30 1    
    33    3   31 1    
    34    4   32 1    
    35    4   33 1    
    36    4   34 1    
    37    5   35 1    
    38    6   36 1    
    39    7   37 1    
    40   10   38 1    
    41   12   39 1    
    42   15   40 1    
    43   16   41 1    
    44   18   42 1    
    45   19   43 1    
    46   21   44 1    
    47   22   45 1    
    48   23   46 1    
    49   24   47 1    
    50   25   48 1    
@<TRIPOS>SUBSTRUCTURE
     1 ****        2 TEMP              0 ****  ****    0 ROOT 
@<TRIPOS>NORMAL
@<TRIPOS>FF_PBC
FORCE_FIELD_SETUP_FEATURE Force Field Setup information
v1.0  0 0.000000 0.000000 0.000000 0.000000 0.000000 0.000000 NONE 0 0 0 0 1 0 0 0 0 0 0 0 0
