#	Name:			PISM00832.3
#	Creating user name:	baoopengkun
#	Creation time:		Fri Nov 30 18:30:09 2018

#	Modifying user name:	baoopengkun
#	Modification time:	Fri Nov 30 18:32:42 2018

@<TRIPOS>MOLECULE
PISM00832.3
   33    34     1     2     0
SMALL
GAST_HUCK


@<TRIPOS>ATOM
      1 C1         -7.7579   -0.0057   18.7785 C.ar      1 <1>        -0.0630 
      2 C2         -8.9103   -0.0852   17.9908 C.ar      1 <1>        -0.0547 
      3 C3         -8.9019   -0.8022   16.7873 C.ar      1 <1>         0.0057 
      4 C4         -7.7341   -1.4765   16.4093 C.ar      1 <1>        -0.0547 
      5 C5         -6.5852   -1.4132   17.2032 C.ar      1 <1>        -0.0630 
      6 C6         -6.5931   -0.6699   18.3862 C.ar      1 <1>        -0.0634 
      7 C7        -10.1243   -0.8701   15.8930 C.2       1 <1>         0.1724 
      8 C8        -11.1757    0.1696   16.0251 C.2       1 <1>         0.2768 
      9 O9        -10.8443    1.3183   16.2770 O.2       1 <1>        -0.3591 
     10 O10       -12.4726   -0.1546   15.8756 O.3       1 <1>        -0.2809 
     11 C11       -13.3783    0.9571   16.0235 C.3       1 <1>         0.0645 
     12 N12       -10.1835   -1.8333   15.0550 N.2       1 <1>        -0.1061 
     13 O13       -11.3468   -1.7127   14.2730 O.3       1 <1>        -0.1680 
     14 C14       -12.3033   -2.7332   14.5816 C.3       1 <1>         0.2638 
     15 C15       -13.5184   -2.5178   13.7150 C.2       1 <1>         0.0024 
     16 C16       -13.6944   -3.5537   12.8967 C.2       1 <1>         0.0295 
     17 C17       -12.5978   -4.4518   13.2401 C.2       1 <1>         0.2498 
     18 O18       -11.7905   -4.0271   14.2042 O.3       1 <1>        -0.2273 
     19 O19       -12.4342   -5.5245   12.6852 O.2       1 <1>        -0.3691 
     20 C20       -14.7646   -3.7689   11.8619 C.3       1 <1>        -0.0323 
     21 H1         -7.7678    0.5717   19.6982 H         1 <1>         0.0613 
     22 H2         -9.8109    0.4124   18.3340 H         1 <1>         0.0608 
     23 H3         -7.7083   -2.0544   15.4908 H         1 <1>         0.0608 
     24 H4         -5.6854   -1.9404   16.9004 H         1 <1>         0.0613 
     25 H5         -5.6982   -0.6094   18.9982 H         1 <1>         0.0603 
     26 H6        -14.4019    0.5805   15.8821 H         1 <1>         0.0575 
     27 H7        -13.1858    1.7330   15.2650 H         1 <1>         0.0575 
     28 H8        -13.3074    1.4009   17.0297 H         1 <1>         0.0575 
     29 H9        -12.5726   -2.7238   15.6500 H         1 <1>         0.1248 
     30 H10       -14.1507   -1.6318   13.7584 H         1 <1>         0.0708 
     31 H11       -15.5113   -2.9611   11.8905 H         1 <1>         0.0347 
     32 H12       -15.2679   -4.7288   12.0507 H         1 <1>         0.0347 
     33 H13       -14.3038   -3.7968   10.8633 H         1 <1>         0.0347 
@<TRIPOS>BOND
     1    2    1 ar   
     2    2    3 ar   
     3    3    4 ar   
     4    4    5 ar   
     5    5    6 ar   
     6    1    6 ar   
     7    3    7 1    
     8    7    8 1    
     9    8    9 2    
    10    8   10 1    
    11   10   11 1    
    12    7   12 2    
    13   12   13 1    
    14   13   14 1    
    15   14   15 1    
    16   15   16 2    
    17   16   17 1    
    18   17   18 1    
    19   14   18 1    
    20   17   19 2    
    21   16   20 1    
    22    1   21 1    
    23    2   22 1    
    24    4   23 1    
    25    5   24 1    
    26    6   25 1    
    27   11   26 1    
    28   11   27 1    
    29   11   28 1    
    30   14   29 1    
    31   15   30 1    
    32   20   31 1    
    33   20   32 1    
    34   20   33 1    
@<TRIPOS>SUBSTRUCTURE
     1 ****        2 TEMP              0 ****  ****    0 ROOT 
@<TRIPOS>NORMAL
@<TRIPOS>FF_PBC
FORCE_FIELD_SETUP_FEATURE Force Field Setup information
v1.0  0 0.000000 0.000000 0.000000 0.000000 0.000000 0.000000 NONE 0 0 0 0 1 0 0 0 0 0 0 0 0
@<TRIPOS>RENDERING_ATTRS
ANTIALIASED_LINES 
*
