#	Name:			PISM00371
#	Creating user name:	malab
#	Creation time:		Tue Apr 02 20:32:38 2019

#	Modifying user name:	malab
#	Modification time:	Tue Apr 02 20:43:00 2019

@<TRIPOS>MOLECULE
PISM00371
   77    79     1     1     0
SMALL
GAST_HUCK


@<TRIPOS>ATOM
      1 N1          6.9391   -0.8882   -7.4847 N.2       1 <1>        -0.1730 
      2 C2          7.5542   -1.1279   -8.5809 C.2       1 <1>         0.0653 
      3 N3          6.6423   -0.5298   -9.5103 N.2       1 <1>        -0.2827 
      4 C4          5.6572   -0.0372   -8.9098 C.2       1 <1>         0.1489 
      5 N5          5.7554   -0.2193   -7.6212 N.pl3     1 <1>        -0.1236 
      6 C6          4.9322    0.1535   -6.6690 C.2       1 <1>         0.1347 
      7 C7          5.3706   -0.2570   -5.2669 C.3       1 <1>         0.1322 
      8 O8          6.7763   -0.0188   -5.0619 O.3       1 <1>        -0.3716 
      9 N9         -0.8427    1.8509   -2.4171 N.2       1 <1>        -0.0916 
     10 N10        -1.5373    2.5117   -1.4766 N.2       1 <1>        -0.2262 
     11 C11         3.7960    0.8365   -6.9025 C.2       1 <1>        -0.0370 
     12 C12         3.2551    2.2870   -4.8953 C.ar      1 <1>        -0.0693 
     13 C13         2.3910    2.6849   -3.8707 C.ar      1 <1>        -0.0312 
     14 C14         1.0808    2.1917   -3.8164 C.ar      1 <1>         0.1107 
     15 C15         0.6708    1.2568   -4.7731 C.ar      1 <1>        -0.0312 
     16 C16         1.5439    0.8339   -5.7792 C.ar      1 <1>        -0.0693 
     17 N17         0.1995    2.5860   -2.8634 N.pl3     1 <1>        -0.1418 
     18 C18         2.8499    1.3286   -5.8290 C.ar      1 <1>        -0.0552 
     19 C19         4.9408   -1.7093   -4.8587 C.3       1 <1>         0.0043 
     20 C20         5.4923   -2.7992   -5.8261 C.3       1 <1>        -0.0552 
     21 C21         5.4677   -2.0113   -3.4229 C.3       1 <1>        -0.0552 
     22 C22         3.3863   -1.8152   -4.8465 C.3       1 <1>        -0.0552 
     23 C23        -0.8286    3.7628   -1.3835 C.2       1 <1>         0.0385 
     24 C24         0.1939    3.7375   -2.2452 C.2       1 <1>         0.0826 
     25 C25        -1.2571    4.8550   -0.4368 C.3       1 <1>        -0.0183 
     26 C26        -0.3805    9.4734    1.6237 C.3       1 <1>        -0.0531 
     27 C27         0.5454   10.7208    1.6238 C.3       1 <1>        -0.0531 
     28 C28         0.0882   11.7698    2.6745 C.3       1 <1>        -0.0531 
     29 H1          8.4999   -1.6391   -8.7553 H         1 <1>         0.0879 
     30 H2          4.8821    0.4541   -9.4939 H         1 <1>         0.1387 
     31 H3          4.9190    0.4059   -4.5191 H         1 <1>         0.0846 
     32 H4          7.3215   -0.5060   -5.6720 H         1 <1>         0.2141 
     33 H5          3.4472    1.1005   -7.8965 H         1 <1>         0.0306 
     34 H6          4.2453    2.7274   -4.9663 H         1 <1>         0.0534 
     35 H7          2.7602    3.3728   -3.1192 H         1 <1>         0.0577 
     36 H8         -0.3371    0.8561   -4.7385 H         1 <1>         0.0577 
     37 H9          1.2051    0.1189   -6.5224 H         1 <1>         0.0534 
     38 H10         5.1544   -3.7977   -5.5087 H         1 <1>         0.0238 
     39 H11         6.5917   -2.8118   -5.8325 H         1 <1>         0.0238 
     40 H12         5.1306   -2.6380   -6.8523 H         1 <1>         0.0238 
     41 H13         5.1590   -3.0158   -3.0949 H         1 <1>         0.0238 
     42 H14         5.0745   -1.2810   -2.6990 H         1 <1>         0.0238 
     43 H15         6.5671   -1.9676   -3.3942 H         1 <1>         0.0238 
     44 H16         2.9812   -1.6629   -5.8574 H         1 <1>         0.0238 
     45 H17         2.9447   -1.0661   -4.1716 H         1 <1>         0.0238 
     46 C46        -0.3426    6.1095   -0.4430 C.3       1 <1>        -0.0461 
     47 H18         3.0648   -2.8102   -4.5025 H         1 <1>         0.0238 
     48 H19         0.8886    4.5617   -2.3911 H         1 <1>         0.0901 
     49 H20        -1.2754    4.4192    0.5743 H         1 <1>         0.0382 
     50 C50        -0.8291    7.1694    0.5834 C.3       1 <1>        -0.0517 
     51 H21        -2.2849    5.1442   -0.7061 H         1 <1>         0.0382 
     52 C52         0.0904    8.4214    0.5820 C.3       1 <1>        -0.0529 
     53 H22        -0.3774    9.0182    2.6278 H         1 <1>         0.0265 
     54 H23        -1.4119    9.7841    1.3886 H         1 <1>         0.0265 
     55 H24         0.5362   11.1803    0.6217 H         1 <1>         0.0265 
     56 H25         1.5779   10.4072    1.8501 H         1 <1>         0.0265 
     57 H26        -0.9443   12.0846    2.4501 H         1 <1>         0.0265 
     58 C58         1.0180   13.0141    2.6700 C.3       1 <1>        -0.0531 
     59 H28         0.0989   11.3106    3.6768 H         1 <1>         0.0265 
     60 H29        -0.3419    6.5560   -1.4511 H         1 <1>         0.0282 
     61 H30         0.6871    5.8085   -0.1886 H         1 <1>         0.0282 
     62 H31        -0.8342    6.7239    1.5919 H         1 <1>         0.0267 
     63 H32        -1.8595    7.4734    0.3353 H         1 <1>         0.0267 
     64 H33         0.0868    8.8754   -0.4227 H         1 <1>         0.0265 
     65 H34         1.1227    8.1146    0.8182 H         1 <1>         0.0265 
     66 C66         0.5674   14.0655    3.7208 C.3       1 <1>        -0.0533 
     67 H27         1.0054   13.4732    1.6677 H         1 <1>         0.0265 
     68 H35         2.0506   12.6982    2.8920 H         1 <1>         0.0265 
     69 H36        -0.4658   14.3811    3.5011 H         1 <1>         0.0265 
     70 C70         1.4972   15.3098    3.7086 C.3       1 <1>        -0.0559 
     71 H38         0.5831   13.6092    4.7243 H         1 <1>         0.0265 
     72 C72         1.0439   16.3647    4.7513 C.3       1 <1>        -0.0653 
     73 H37         1.4869   15.7686    2.7058 H         1 <1>         0.0263 
     74 H39         2.5311   15.0003    3.9356 H         1 <1>         0.0263 
     75 H40         0.0200   16.7060    4.5322 H         1 <1>         0.0230 
     76 H41         1.7165   17.2365    4.7255 H         1 <1>         0.0230 
     77 H42         1.0646   15.9363    5.7656 H         1 <1>         0.0230 
@<TRIPOS>BOND
     1    2    1 2    
     2    2    3 1    
     3    3    4 2    
     4    4    5 1    
     5    1    5 1    
     6    5    6 1    
     7    6    7 1    
     8    7    8 1    
     9   17    9 1    
    10    9   10 2    
    11   10   23 1    
    12    6   11 2    
    13   18   12 ar   
    14   12   13 ar   
    15   13   14 ar   
    16   15   14 ar   
    17   16   15 ar   
    18   18   16 ar   
    19   11   18 1    
    20   14   17 1    
    21    7   19 1    
    22   19   20 1    
    23   19   21 1    
    24   19   22 1    
    25   24   23 2    
    26   17   24 1    
    27   23   25 1    
    28   52   26 1    
    29   26   27 1    
    30   27   28 1    
    31    2   29 1    
    32    4   30 1    
    33    7   31 1    
    34    8   32 1    
    35   11   33 1    
    36   12   34 1    
    37   13   35 1    
    38   15   36 1    
    39   16   37 1    
    40   20   38 1    
    41   20   39 1    
    42   20   40 1    
    43   21   41 1    
    44   21   42 1    
    45   21   43 1    
    46   22   44 1    
    47   22   45 1    
    48   25   46 1    
    49   22   47 1    
    50   24   48 1    
    51   25   49 1    
    52   46   50 1    
    53   25   51 1    
    54   50   52 1    
    55   26   53 1    
    56   26   54 1    
    57   27   55 1    
    58   27   56 1    
    59   28   57 1    
    60   28   58 1    
    61   28   59 1    
    62   46   60 1    
    63   46   61 1    
    64   50   62 1    
    65   50   63 1    
    66   52   64 1    
    67   52   65 1    
    68   58   66 1    
    69   58   67 1    
    70   58   68 1    
    71   66   69 1    
    72   66   70 1    
    73   66   71 1    
    74   70   72 1    
    75   70   73 1    
    76   70   74 1    
    77   72   75 1    
    78   72   76 1    
    79   72   77 1    
@<TRIPOS>SUBSTRUCTURE
     1 ****        2 TEMP              0 ****  ****    0 ROOT 
@<TRIPOS>NORMAL
@<TRIPOS>FF_PBC
FORCE_FIELD_SETUP_FEATURE Force Field Setup information
v1.0  0 0.000000 0.000000 0.000000 0.000000 0.000000 0.000000 NONE 0 0 0 0 1 0 0 0 0 0 0 0 0
