#	Name:			PISM00487
#	Creating user name:	baoopengkun
#	Creation time:		Wed Feb 27 21:30:50 2019

#	Modifying user name:	baoopengkun
#	Modification time:	Wed Feb 27 21:31:20 2019

@<TRIPOS>MOLECULE
PISM00487
   12    11     1     1     0
SMALL
GAST_HUCK


@<TRIPOS>ATOM
      1 C1         15.9241    2.8479  -20.3246 C.3       1 <1>        -0.0486 
      2 C2         17.1251    2.0738  -19.8404 C.2       1 <1>        -0.1020 
      3 C3         17.5891    2.1059  -18.5824 C.2       1 <1>        -0.1020 
      4 C4         17.0023    2.9177  -17.4522 C.3       1 <1>        -0.0486 
      5 H1         16.1226    3.9285  -20.2617 H         1 <1>         0.0353 
      6 H2         15.0392    2.6011  -19.7188 H         1 <1>         0.0353 
      7 H3         15.7011    2.5973  -21.3733 H         1 <1>         0.0353 
      8 H4         17.6487    1.4469  -20.5657 H         1 <1>         0.0447 
      9 H5         18.4645    1.4991  -18.3406 H         1 <1>         0.0447 
     10 H6         16.1676    3.5636  -17.7581 H         1 <1>         0.0353 
     11 H7         17.7886    3.5580  -17.0247 H         1 <1>         0.0353 
     12 H8         16.6418    2.2340  -16.6689 H         1 <1>         0.0353 
@<TRIPOS>BOND
     1    2    1 1    
     2    2    3 2    
     3    3    4 1    
     4    1    5 1    
     5    1    6 1    
     6    1    7 1    
     7    2    8 1    
     8    3    9 1    
     9    4   10 1    
    10    4   11 1    
    11    4   12 1    
@<TRIPOS>SUBSTRUCTURE
     1 ****        2 TEMP              0 ****  ****    0 ROOT 
@<TRIPOS>NORMAL
@<TRIPOS>FF_PBC
FORCE_FIELD_SETUP_FEATURE Force Field Setup information
v1.0  0 0.000000 0.000000 0.000000 0.000000 0.000000 0.000000 NONE 0 0 0 0 1 0 0 0 0 0 0 0 0
