#	Name:			PISM00699
#	Creating user name:	baoopengkun
#	Creation time:		Sun Jan 20 21:12:11 2019

#	Modifying user name:	baoopengkun
#	Modification time:	Sun Jan 20 21:17:27 2019

@<TRIPOS>MOLECULE
PISM00699
   44    46     1     1     0
SMALL
GAST_HUCK


@<TRIPOS>ATOM
      1 N1         -1.7418    2.1072    8.7281 N.pl3     1 <1>        -0.3340 
      2 C2         -0.5281    1.5520    8.4860 C.ar      1 <1>         0.0407 
      3 C3          0.5888    1.9278    9.2428 C.ar      1 <1>        -0.0384 
      4 C4          1.8417    1.3624    8.9883 C.ar      1 <1>        -0.0535 
      5 C5          1.9946    0.4288    7.9590 C.ar      1 <1>         0.0365 
      6 C6          0.8794    0.0308    7.2174 C.ar      1 <1>        -0.0535 
      7 C7         -0.3737    0.5938    7.4763 C.ar      1 <1>        -0.0384 
      8 C8          3.3536   -0.1616    7.6527 C.2       1 <1>         0.1997 
      9 O9          3.5086   -1.3211    7.9985 O.2       1 <1>        -0.3905 
     10 N10         4.3358    0.5508    7.0328 N.am      1 <1>        -0.2600 
     11 C11         4.0680    1.9168    6.5587 C.3       1 <1>         0.0464 
     12 C12         3.4362    1.8365    5.1469 C.3       1 <1>        -0.0414 
     13 C13         5.3576    2.7828    6.4877 C.3       1 <1>        -0.0179 
     14 C14         5.8074    3.4544    7.8039 C.3       1 <1>        -0.0478 
     15 C15         5.1709    4.3051    6.6827 C.3       1 <1>        -0.0478 
     16 C16         5.6322   -0.1003    6.8071 C.3       1 <1>         0.0670 
     17 C17         6.6708    0.4529    7.7914 C.ar      1 <1>        -0.0208 
     18 C18         6.3346    0.6034    9.1414 C.ar      1 <1>        -0.0584 
     19 C19         7.2543    1.1454   10.0435 C.ar      1 <1>        -0.0685 
     20 C20         8.5252    1.5243    9.6029 C.ar      1 <1>        -0.0687 
     21 C21         8.8755    1.3530    8.2610 C.ar      1 <1>        -0.0685 
     22 C22         7.9524    0.8150    7.3595 C.ar      1 <1>        -0.0584 
     23 H1         -2.5657    1.8318    8.1730 H         1 <1>         0.1738 
     24 H2         -1.8586    2.8118    9.4717 H         1 <1>         0.1738 
     25 H3          0.4908    2.6623   10.0356 H         1 <1>         0.0530 
     26 H4          2.6992    1.6467    9.5907 H         1 <1>         0.0636 
     27 H5          0.9899   -0.7172    6.4384 H         1 <1>         0.0636 
     28 H6         -1.2275    0.2793    6.8850 H         1 <1>         0.0530 
     29 H7          3.3583    2.4411    7.2149 H         1 <1>         0.0559 
     30 H8          2.4982    1.2624    5.1789 H         1 <1>         0.0252 
     31 H9          4.1261    1.3386    4.4494 H         1 <1>         0.0252 
     32 H10         3.2178    2.8466    4.7663 H         1 <1>         0.0252 
     33 H11         6.1567    2.5277    5.7742 H         1 <1>         0.0323 
     34 H12         6.8921    3.5663    7.9556 H         1 <1>         0.0269 
     35 H13         5.1972    3.2692    8.7016 H         1 <1>         0.0269 
     36 H14         5.8635    4.9772    6.1522 H         1 <1>         0.0269 
     37 H15         4.1676    4.7032    6.9002 H         1 <1>         0.0269 
     38 H16         5.9431    0.0693    5.7658 H         1 <1>         0.0685 
     39 H17         5.6129   -1.1919    6.9494 H         1 <1>         0.0685 
     40 H18         5.3552    0.3000    9.4959 H         1 <1>         0.0557 
     41 H19         6.9813    1.2719   11.0866 H         1 <1>         0.0599 
     42 H20         9.2388    1.9500   10.3017 H         1 <1>         0.0559 
     43 H21         9.8655    1.6387    7.9186 H         1 <1>         0.0599 
     44 H22         8.2397    0.6819    6.3215 H         1 <1>         0.0557 
@<TRIPOS>BOND
     1    2    1 1    
     2    2    3 ar   
     3    3    4 ar   
     4    4    5 ar   
     5    6    5 ar   
     6    7    6 ar   
     7    2    7 ar   
     8    5    8 1    
     9    8    9 2    
    10    8   10 am   
    11   10   11 1    
    12   11   12 1    
    13   11   13 1    
    14   13   14 1    
    15   14   15 1    
    16   13   15 1    
    17   10   16 1    
    18   16   17 1    
    19   17   18 ar   
    20   18   19 ar   
    21   19   20 ar   
    22   21   20 ar   
    23   22   21 ar   
    24   17   22 ar   
    25    1   23 1    
    26    1   24 1    
    27    3   25 1    
    28    4   26 1    
    29    6   27 1    
    30    7   28 1    
    31   11   29 1    
    32   12   30 1    
    33   12   31 1    
    34   12   32 1    
    35   13   33 1    
    36   14   34 1    
    37   14   35 1    
    38   15   36 1    
    39   15   37 1    
    40   16   38 1    
    41   16   39 1    
    42   18   40 1    
    43   19   41 1    
    44   20   42 1    
    45   21   43 1    
    46   22   44 1    
@<TRIPOS>SUBSTRUCTURE
     1 ****        2 TEMP              0 ****  ****    0 ROOT 
@<TRIPOS>NORMAL
@<TRIPOS>FF_PBC
FORCE_FIELD_SETUP_FEATURE Force Field Setup information
v1.0  0 0.000000 0.000000 0.000000 0.000000 0.000000 0.000000 NONE 0 0 0 0 1 0 0 0 0 0 0 0 0
