#	Name:			PISM01140
#	Creating user name:	14062
#	Creation time:		Sat Apr 06 10:16:37 2019

#	Modifying user name:	14062
#	Modification time:	Sat Apr 06 10:19:25 2019

@<TRIPOS>MOLECULE
PISM01140
   28    29     1     2     0
SMALL
GAST_HUCK


@<TRIPOS>ATOM
      1 N1         -1.0699    0.4746    2.1522 N.am      1 BENZYL     -0.1909 
      2 S2         -1.2329   -0.1544    0.6537 S.o2      1 BENZYL      0.0814 
      3 C2         -0.9785    1.2757   -0.3731 C.ar      1 BENZYL      0.1009 
      4 C3         -2.0639    1.9682   -0.9181 C.ar      1 BENZYL     -0.0457 
      5 C4         -1.8465    3.1017   -1.7074 C.ar      1 BENZYL     -0.0453 
      6 C5         -0.5458    3.5529   -1.9457 C.ar      1 BENZYL      0.0230 
      7 C6          0.5399    2.8675   -1.3907 C.ar      1 BENZYL     -0.0453 
      8 C7          0.3222    1.7321   -0.6051 C.ar      1 BENZYL     -0.0457 
      9 C9         -1.1246   -0.3227    3.2375 C.2       1 BENZYL      0.1077 
     10 C10        -0.9850    0.1812    4.6038 C.2       1 BENZYL     -0.0152 
     11 C11        -1.1071   -0.9583    5.2699 C.2       1 BENZYL      0.1223 
     12 O12        -1.2951   -2.0381    4.5241 O.3       1 BENZYL     -0.1963 
     13 N13        -1.3015   -1.5862    3.1831 N.2       1 BENZYL     -0.1754 
     14 N14        -0.3373    4.6989   -2.7459 N.3       1 BENZYL     -0.2818 
     15 O15        -0.1397   -1.0789    0.4269 O.2       1 BENZYL     -0.1470 
     16 O16        -2.6000   -0.6102    0.4981 O.2       1 BENZYL     -0.1470 
     17 C17        -1.0546   -1.1449    6.7610 C.3       1 BENZYL      0.0069 
     18 H1         -0.9341    1.4571    2.2731 H         1 BENZYL      0.2095 
     19 H2         -3.0762    1.6269   -0.7289 H         1 BENZYL      0.0605 
     20 H3         -2.6865    3.6366   -2.1384 H         1 BENZYL      0.0523 
     21 H4          1.5514    3.2174   -1.5700 H         1 BENZYL      0.0523 
     22 H5          1.1640    1.2016   -0.1718 H         1 BENZYL      0.0605 
     23 H6         -0.8266    1.1962    4.9659 H         1 BENZYL      0.0238 
     24 H7          0.2807    4.4522   -3.5973 H         1 BENZYL      0.1498 
     25 H8          0.1334    5.4784   -2.1640 H         1 BENZYL      0.1498 
     26 H9         -2.0078   -1.5692    7.1092 H         1 BENZYL      0.0449 
     27 H10        -0.8808   -0.1867    7.2732 H         1 BENZYL      0.0449 
     28 H11        -0.2390   -1.8388    7.0132 H         1 BENZYL      0.0449 
@<TRIPOS>BOND
     1    2    3 1    
     2    3    4 ar   
     3    3    8 ar   
     4    8    7 ar   
     5    7    6 ar   
     6    6    5 ar   
     7    5    4 ar   
     8    2    1 1    
     9    1    9 am   
    10    9   10 1    
    11   10   11 2    
    12   11   12 1    
    13   12   13 1    
    14    9   13 2    
    15    6   14 1    
    16    2   15 2    
    17    2   16 2    
    18   11   17 1    
    19    1   18 1    
    20    4   19 1    
    21    5   20 1    
    22    7   21 1    
    23    8   22 1    
    24   10   23 1    
    25   14   24 1    
    26   14   25 1    
    27   17   26 1    
    28   17   27 1    
    29   17   28 1    
@<TRIPOS>SUBSTRUCTURE
     1 BENZYL      2 PERM              0 ****  ****    0 ROOT 
@<TRIPOS>NORMAL
@<TRIPOS>FF_PBC
FORCE_FIELD_SETUP_FEATURE Force Field Setup information
v1.0  0 0.000000 0.000000 0.000000 0.000000 0.000000 0.000000 NONE 0 0 0 0 1 0 0 0 0 0 0 0 0
@<TRIPOS>RENDERING_ATTRS
ANTIALIASED_LINES 
*
