#	Name:			PISM00995
#	Creating user name:	baoopengkun
#	Creation time:		Fri Jan 11 22:05:04 2019

#	Modifying user name:	baoopengkun
#	Modification time:	Fri Jan 11 22:39:14 2019

@<TRIPOS>MOLECULE
PISM00995
   38    40     1     1     0
SMALL
GAST_HUCK


@<TRIPOS>ATOM
      1 C1         13.0061    7.2964  -14.8508 C.2       1 <1>         0.2473 
      2 O2         11.8776    7.7119  -15.0507 O.2       1 <1>        -0.3659 
      3 C3         17.0773    3.8833   -1.4830 C.2       1 <1>         0.0412 
      4 C4         18.0370    4.6029   -2.0706 C.2       1 <1>         0.0412 
      5 O5         13.8502    7.3228  -15.8852 O.3       1 <1>        -0.2960 
      6 H1         17.0823    3.4551   -0.4817 H         1 <1>         0.0816 
      7 C7         15.9900    3.7787   -2.4652 C.2       1 <1>         0.2576 
      8 O8         14.9429    3.1904   -2.2568 O.2       1 <1>        -0.3492 
      9 N9         16.3484    4.4143   -3.5410 N.pl3     1 <1>        -0.1377 
     10 C10        17.5333    4.9323   -3.4104 C.2       1 <1>         0.2576 
     11 O11        18.1614    5.5798   -4.2306 O.2       1 <1>        -0.3492 
     12 C12        15.5853    4.5237   -4.6564 C.ar      1 <1>         0.0861 
     13 C13        14.9144    3.4075   -5.1703 C.ar      1 <1>        -0.0343 
     14 C14        14.1280    3.5192   -6.3208 C.ar      1 <1>        -0.0440 
     15 C15        14.0182    4.7474   -6.9786 C.ar      1 <1>         0.1029 
     16 C16        14.6863    5.8643   -6.4707 C.ar      1 <1>        -0.0440 
     17 C17        15.4582    5.7548   -5.3105 C.ar      1 <1>        -0.0343 
     18 S18        13.0538    4.9104   -8.4637 S.o2      1 <1>         0.0858 
     19 O19        12.4740    3.6256   -8.8004 O.2       1 <1>        -0.1457 
     20 O20        12.1979    6.0707   -8.3159 O.2       1 <1>        -0.1457 
     21 N21        14.2311    5.2632   -9.5970 N.am      1 <1>        -0.1843 
     22 C22        13.9303    5.7644  -10.8945 C.ar      1 <1>         0.0688 
     23 C23        12.6185    5.7683  -11.3816 C.ar      1 <1>        -0.0388 
     24 C24        12.3383    6.2802  -12.6521 C.ar      1 <1>        -0.0563 
     25 C25        13.3599    6.7788  -13.4684 C.ar      1 <1>         0.0437 
     26 C26        14.6699    6.7869  -12.9732 C.ar      1 <1>        -0.0563 
     27 C27        14.9532    6.2656  -11.7070 C.ar      1 <1>        -0.0388 
     28 H2         19.0013    4.8942   -1.6567 H         1 <1>         0.0816 
     29 H3         14.6824    6.9041  -15.7162 H         1 <1>         0.2519 
     30 H4         15.0059    2.4424   -4.6827 H         1 <1>         0.0539 
     31 H5         13.6038    2.6498   -6.7035 H         1 <1>         0.0607 
     32 H6         14.6017    6.8187   -6.9807 H         1 <1>         0.0607 
     33 H7         15.9536    6.6365   -4.9176 H         1 <1>         0.0539 
     34 H8         15.1845    5.0954   -9.3463 H         1 <1>         0.2193 
     35 H9         11.8036    5.3715  -10.7871 H         1 <1>         0.0498 
     36 H10        11.3122    6.2844  -13.0073 H         1 <1>         0.0627 
     37 H11        15.4825    7.2069  -13.5554 H         1 <1>         0.0627 
     38 H12        15.9794    6.2573  -11.3532 H         1 <1>         0.0498 
@<TRIPOS>BOND
     1   25    1 1    
     2    1    2 2    
     3    4    3 2    
     4    1    5 1    
     5    3    6 1    
     6    4   28 1    
     7    3    7 1    
     8    7    8 2    
     9    9    7 1    
    10   10    9 1    
    11   10   11 2    
    12    4   10 1    
    13    9   12 1    
    14   12   13 ar   
    15   13   14 ar   
    16   14   15 ar   
    17   16   15 ar   
    18   17   16 ar   
    19   12   17 ar   
    20   15   18 1    
    21   18   19 2    
    22   18   20 2    
    23   18   21 1    
    24   21   22 1    
    25   22   23 ar   
    26   23   24 ar   
    27   24   25 ar   
    28   26   25 ar   
    29   27   26 ar   
    30   22   27 ar   
    31    5   29 1    
    32   13   30 1    
    33   14   31 1    
    34   16   32 1    
    35   17   33 1    
    36   21   34 1    
    37   23   35 1    
    38   24   36 1    
    39   26   37 1    
    40   27   38 1    
@<TRIPOS>SUBSTRUCTURE
     1 ****        4 TEMP              0 ****  ****    0 ROOT 
@<TRIPOS>NORMAL
@<TRIPOS>FF_PBC
FORCE_FIELD_SETUP_FEATURE Force Field Setup information
v1.0  0 0.000000 0.000000 0.000000 0.000000 0.000000 0.000000 NONE 0 0 0 0 1 0 0 0 0 0 0 0 0
