#	Name:			PISM00862
#	Creating user name:	baoopengkun
#	Creation time:		Thu Dec 13 15:12:19 2018

#	Modifying user name:	baoopengkun
#	Modification time:	Thu Dec 13 22:39:47 2018

@<TRIPOS>MOLECULE
PISM00862
   24    25     1     1     0
SMALL
GAST_HUCK


@<TRIPOS>ATOM
      1 F1          0.1667    2.2749    1.7249 F         1 <1>        -0.1902 
      2 C2         -2.1257    2.7333    2.0555 C.ar      1 <1>        -0.0366 
      3 C3         -3.4214    2.8241    1.5383 C.ar      1 <1>        -0.0742 
      4 C4         -3.6545    2.5393    0.1895 C.ar      1 <1>        -0.0606 
      5 C5         -2.5939    2.1629   -0.6396 C.ar      1 <1>         0.0668 
      6 C6         -1.2993    2.0675   -0.1217 C.ar      1 <1>         0.1457 
      7 C7         -1.0658    2.3564    1.2265 C.ar      1 <1>         0.1606 
      8 Cl8        -2.8855    1.8126   -2.3312 Cl        1 <1>        -0.0800 
      9 O9         -0.2475    1.6849   -0.9543 O.3       1 <1>        -0.2699 
     10 C10         0.5870    2.7851   -1.3349 C.3       1 <1>         0.2352 
     11 O11        -0.2198    3.7991   -1.9680 O.3       1 <1>        -0.2314 
     12 C12         0.1840    3.8272   -3.2315 C.2       1 <1>         0.2494 
     13 C13         1.2789    2.9209   -3.5608 C.2       1 <1>         0.0292 
     14 C14         1.5263    2.2988   -2.4098 C.2       1 <1>        -0.0020 
     15 C15         1.9615    2.7284   -4.8873 C.3       1 <1>        -0.0323 
     16 O16        -0.3245    4.5698   -4.0535 O.2       1 <1>        -0.3691 
     17 H1         -1.9370    2.9547    3.1009 H         1 <1>         0.0576 
     18 H2         -4.2453    3.1157    2.1830 H         1 <1>         0.0514 
     19 H3         -4.6586    2.6104   -0.2165 H         1 <1>         0.0560 
     20 H4          1.1431    3.2084   -0.4819 H         1 <1>         0.1198 
     21 H5          2.2915    1.5381   -2.2615 H         1 <1>         0.0705 
     22 H6          2.0642    1.6549   -5.1058 H         1 <1>         0.0347 
     23 H7          2.9605    3.1880   -4.8564 H         1 <1>         0.0347 
     24 H8          1.3748    3.2003   -5.6897 H         1 <1>         0.0347 
@<TRIPOS>BOND
     1    7    1 1    
     2    2    3 ar   
     3    3    4 ar   
     4    4    5 ar   
     5    5    6 ar   
     6    6    7 ar   
     7    2    7 ar   
     8    5    8 1    
     9    6    9 1    
    10    9   10 1    
    11   10   11 1    
    12   11   12 1    
    13   12   13 1    
    14   13   14 2    
    15   10   14 1    
    16   13   15 1    
    17   12   16 2    
    18    2   17 1    
    19    3   18 1    
    20    4   19 1    
    21   10   20 1    
    22   14   21 1    
    23   15   22 1    
    24   15   23 1    
    25   15   24 1    
@<TRIPOS>SUBSTRUCTURE
     1 ****        2 TEMP              0 ****  ****    0 ROOT 
@<TRIPOS>NORMAL
@<TRIPOS>FF_PBC
FORCE_FIELD_SETUP_FEATURE Force Field Setup information
v1.0  0 0.000000 0.000000 0.000000 0.000000 0.000000 0.000000 NONE 0 0 0 0 1 0 0 0 0 0 0 0 0
