#	Name:			PISM00931.1
#	Creating user name:	baoopengkun
#	Creation time:		Wed Feb 27 16:18:15 2019

#	Modifying user name:	baoopengkun
#	Modification time:	Wed Feb 27 16:19:59 2019

@<TRIPOS>MOLECULE
PISM00931.1
   19    19     1     2     0
SMALL
GAST_HUCK


@<TRIPOS>ATOM
      1 O1        -15.2670    5.0568   15.2119 O.2       1 <1>        -0.3823 
      2 C2        -15.8049    3.9630   15.2357 C.2       1 <1>         0.2292 
      3 C3        -17.0612    3.7198   15.9377 C.2       1 <1>         0.0167 
      4 C4        -17.2774    2.4248   15.7118 C.2       1 <1>        -0.0169 
      5 C5        -17.8959    4.6969   16.7202 C.3       1 <1>        -0.0422 
      6 C6        -16.1776    1.8105   14.8735 C.3       1 <1>         0.1192 
      7 O7        -15.2782    2.9103   14.6170 O.3       1 <1>        -0.2658 
      8 C8        -18.4356    1.5808   16.1798 C.3       1 <1>        -0.0251 
      9 C9        -15.4104    0.6938   15.6196 C.3       1 <1>        -0.0221 
     10 H1        -17.4067    5.6822   16.7433 H         1 <1>         0.0303 
     11 H2        -18.0203    4.3381   17.7527 H         1 <1>         0.0303 
     12 H3        -18.8849    4.8026   16.2499 H         1 <1>         0.0303 
     13 H4        -16.5815    1.4429   13.9158 H         1 <1>         0.0845 
     14 H5        -19.2137    2.2000   16.6497 H         1 <1>         0.0428 
     15 H6        -18.0885    0.8426   16.9174 H         1 <1>         0.0428 
     16 H7        -18.8811    1.0521   15.3243 H         1 <1>         0.0428 
     17 H8        -16.0622   -0.1734   15.8040 H         1 <1>         0.0285 
     18 H9        -15.0368    1.0757   16.5821 H         1 <1>         0.0285 
     19 H10       -14.5528    0.3668   15.0119 H         1 <1>         0.0285 
@<TRIPOS>BOND
     1    2    1 2    
     2    2    3 1    
     3    3    4 2    
     4    3    5 1    
     5    4    6 1    
     6    6    7 1    
     7    2    7 1    
     8    4    8 1    
     9    6    9 1    
    10    5   10 1    
    11    5   11 1    
    12    5   12 1    
    13    6   13 1    
    14    8   14 1    
    15    8   15 1    
    16    8   16 1    
    17    9   17 1    
    18    9   18 1    
    19    9   19 1    
@<TRIPOS>SUBSTRUCTURE
     1 ****        2 TEMP              0 ****  ****    0 ROOT 
@<TRIPOS>NORMAL
@<TRIPOS>FF_PBC
FORCE_FIELD_SETUP_FEATURE Force Field Setup information
v1.0  0 0.000000 0.000000 0.000000 0.000000 0.000000 0.000000 NONE 0 0 0 0 1 0 0 0 0 0 0 0 0
@<TRIPOS>RENDERING_ATTRS
ANTIALIASED_LINES 
*
