#	Name:			PISM00800
#	Creating user name:	baoopengkun
#	Creation time:		Sat Dec 15 02:12:16 2018

#	Modifying user name:	baoopengkun
#	Modification time:	Sat Dec 15 02:15:55 2018

@<TRIPOS>MOLECULE
PISM00800
   43    45     1     1     0
SMALL
GAST_HUCK


@<TRIPOS>ATOM
      1 C1         -4.5089   10.6199  -50.1137 C.3       1 <1>        -0.0202 
      2 C2         -4.0798    9.4862  -51.0652 C.3       1 <1>        -0.0216 
      3 C3         -3.3516   10.1113  -52.2782 C.3       1 <1>         0.0448 
      4 N4         -2.2292   10.9812  -51.8842 N.pl3     1 <1>        -0.2205 
      5 C5         -2.2564   11.5714  -50.7040 C.2       1 <1>         0.0889 
      6 C6         -3.2773   11.4396  -49.8410 C.2       1 <1>        -0.0303 
      7 C7         -3.1800   12.1753  -48.5204 C.3       1 <1>         0.0110 
      8 C8         -2.9913   11.2194  -47.3133 C.3       1 <1>        -0.0482 
      9 C9         -1.9133   12.9363  -48.7783 C.2       1 <1>         0.0301 
     10 C10        -1.3045   12.4821  -50.0263 C.2       1 <1>         0.1232 
     11 O11        -0.1894   12.8541  -50.3501 O.2       1 <1>        -0.4152 
     12 C12        -1.4178   13.8928  -47.9860 C.2       1 <1>         0.0842 
     13 O13        -2.0723   14.2262  -46.8638 O.3       1 <1>        -0.2658 
     14 C14        -1.4236   15.2519  -46.0918 C.3       1 <1>         0.2403 
     15 C15        -0.0505   14.8313  -45.6226 C.2       1 <1>        -0.0006 
     16 C16         0.8666   15.6993  -46.0467 C.2       1 <1>         0.0293 
     17 C17         0.0920   16.6799  -46.8007 C.2       1 <1>         0.2496 
     18 O18        -1.2139   16.4485  -46.8683 O.3       1 <1>        -0.2302 
     19 C19         2.3539   15.6723  -45.8235 C.3       1 <1>        -0.0323 
     20 O20         0.6038   17.6465  -47.3379 O.2       1 <1>        -0.3691 
     21 C21        -1.2460   11.1388  -52.7413 C.2       1 <1>         0.3379 
     22 O22        -0.2601   11.8255  -52.5420 O.2       1 <1>        -0.3641 
     23 O23        -1.3353   10.5079  -53.9275 O.3       1 <1>        -0.2635 
     24 C24        -0.2229   10.7289  -54.8190 C.3       1 <1>         0.0669 
     25 H1         -4.9384   10.1802  -49.2012 H         1 <1>         0.0424 
     26 H2         -5.2693   11.2658  -50.5805 H         1 <1>         0.0424 
     27 H3         -4.9585    8.9029  -51.3889 H         1 <1>         0.0309 
     28 H4         -3.3850    8.8106  -50.5373 H         1 <1>         0.0309 
     29 H5         -4.0601   10.7197  -52.8639 H         1 <1>         0.0546 
     30 H6         -3.0354    9.2584  -52.9033 H         1 <1>         0.0546 
     31 H7         -4.0297   12.8627  -48.3793 H         1 <1>         0.0550 
     32 H8         -2.7499   11.7910  -46.4046 H         1 <1>         0.0271 
     33 H9         -2.1678   10.5163  -47.5138 H         1 <1>         0.0271 
     34 H10        -3.9066   10.6438  -47.1143 H         1 <1>         0.0271 
     35 H11        -0.4854   14.3614  -48.3098 H         1 <1>         0.1144 
     36 H12        -2.0546   15.4911  -45.2207 H         1 <1>         0.1214 
     37 H13         0.1525   13.9440  -45.0244 H         1 <1>         0.0706 
     38 H14         2.7130   14.6353  -45.7423 H         1 <1>         0.0347 
     39 H15         2.5946   16.2118  -44.8957 H         1 <1>         0.0347 
     40 H16         2.8669   16.1607  -46.6656 H         1 <1>         0.0347 
     41 H17        -0.1234   11.7950  -55.0796 H         1 <1>         0.0576 
     42 H18        -0.4143   10.1632  -55.7425 H         1 <1>         0.0576 
     43 H19         0.7207   10.3671  -54.3797 H         1 <1>         0.0576 
@<TRIPOS>BOND
     1    2    1 1    
     2    2    3 1    
     3    3    4 1    
     4    4    5 1    
     5    5    6 2    
     6    1    6 1    
     7    6    7 1    
     8    7    8 1    
     9    7    9 1    
    10    9   10 1    
    11    5   10 1    
    12   10   11 2    
    13    9   12 2    
    14   12   13 1    
    15   13   14 1    
    16   14   15 1    
    17   15   16 2    
    18   16   17 1    
    19   17   18 1    
    20   14   18 1    
    21   16   19 1    
    22   17   20 2    
    23    4   21 1    
    24   21   22 2    
    25   21   23 1    
    26   23   24 1    
    27    1   25 1    
    28    1   26 1    
    29    2   27 1    
    30    2   28 1    
    31    3   29 1    
    32    3   30 1    
    33    7   31 1    
    34    8   32 1    
    35    8   33 1    
    36    8   34 1    
    37   12   35 1    
    38   14   36 1    
    39   15   37 1    
    40   19   38 1    
    41   19   39 1    
    42   19   40 1    
    43   24   41 1    
    44   24   42 1    
    45   24   43 1    
@<TRIPOS>SUBSTRUCTURE
     1 ****        2 TEMP              0 ****  ****    0 ROOT 
@<TRIPOS>NORMAL
@<TRIPOS>FF_PBC
FORCE_FIELD_SETUP_FEATURE Force Field Setup information
v1.0  0 0.000000 0.000000 0.000000 0.000000 0.000000 0.000000 NONE 0 0 0 0 1 0 0 0 0 0 0 0 0
