#	Name:			PISM00426
#	Creating user name:	malab
#	Creation time:		Tue Apr 09 23:41:05 2019

#	Modifying user name:	malab
#	Modification time:	Tue Apr 09 23:41:45 2019

@<TRIPOS>MOLECULE
PISM00426
   39    39     1     2     0
SMALL
USER_CHARGES


@<TRIPOS>ATOM
      1 C1         -8.5407   -4.1785   -4.9131 C.3       1 <1>         0.0000 
      2 C2         -7.9725   -5.6254   -4.8330 C.3       1 <1>         0.0000 
      3 C3         -6.4974   -5.6243   -5.1202 C.2       1 <1>         0.0000 
      4 C4         -5.6879   -4.4212   -4.8712 C.2       1 <1>         0.0000 
      5 C5         -6.2184   -3.3013   -4.3596 C.2       1 <1>         0.0000 
      6 C6         -7.6971   -3.2183   -4.0113 C.3       1 <1>         0.0000 
      7 O7         -5.9641   -6.6287   -5.5659 O.2       1 <1>         0.0000 
      8 C8         -5.3653   -2.0807   -4.0897 C.3       1 <1>         0.0000 
      9 C9        -10.0279   -4.2008   -4.4498 C.3       1 <1>         0.0000 
     10 C10        -8.4969   -3.6836   -6.3923 C.3       1 <1>         0.0000 
     11 H3         -8.4867   -6.2676   -5.5656 H         1 <1>         0.0000 
     12 H4         -8.1247   -6.0680   -3.8370 H         1 <1>         0.0000 
     13 H5         -4.6275   -4.4748   -5.1178 H         1 <1>         0.0000 
     14 O14        -8.2168   -1.8905   -4.2309 O.3       1 <1>         0.0000 
     15 C15        -7.8066   -3.6179   -2.5538 C.2       1 <1>         0.0000 
     16 H8         -5.5042   -1.7516   -3.0486 H         1 <1>         0.0000 
     17 H9         -5.6509   -1.2657   -4.7714 H         1 <1>         0.0000 
     18 H10        -4.2928   -2.2790   -4.2358 H         1 <1>         0.0000 
     19 C19        -8.6098   -3.0140   -1.6694 C.2       1 <1>         0.0000 
     20 C20        -8.6649   -3.4378   -0.2588 C.2       1 <1>         0.0000 
     21 C21        -8.2822   -2.6116    0.7260 C.2       1 <1>         0.0000 
     22 C22        -7.7434   -1.2482    0.5409 C.2       1 <1>         0.0000 
     23 C23        -9.1641   -4.8258    0.0625 C.3       1 <1>         0.0000 
     24 O24        -7.5382   -0.5588    1.5291 O.2       1 <1>         0.0000 
     25 O25        -7.4780   -0.7884   -0.6878 O.3       1 <1>         0.0000 
     26 F26       -10.7667   -5.0056   -5.2609 F         1 <1>         0.0000 
     27 F27       -10.5661   -2.9514   -4.4669 F         1 <1>         0.0000 
     28 H2        -10.1288   -4.5955   -3.4281 H         1 <1>         0.0000 
     29 H6         -7.4653   -3.6237   -6.7685 H         1 <1>         0.0000 
     30 H7         -8.9503   -2.6858   -6.4889 H         1 <1>         0.0000 
     31 H11        -9.0546   -4.3681   -7.0492 H         1 <1>         0.0000 
     32 H12        -7.8302   -1.2156   -3.6846 H         1 <1>         0.0000 
     33 H13        -7.1945   -4.4470   -2.1959 H         1 <1>         0.0000 
     34 H14        -9.2559   -2.1845   -1.9539 H         1 <1>         0.0000 
     35 H15        -8.3615   -2.9643    1.7551 H         1 <1>         0.0000 
     36 H16        -9.5430   -5.3299   -0.8398 H         1 <1>         0.0000 
     37 H17        -9.9816   -4.7733    0.7978 H         1 <1>         0.0000 
     38 H18        -8.3428   -5.4265    0.4811 H         1 <1>         0.0000 
     39 H19        -7.1292    0.0967   -0.7000 H         1 <1>         0.0000 
@<TRIPOS>BOND
     1    2    1 1    
     2    2    3 1    
     3    3    4 1    
     4    4    5 2    
     5    5    6 1    
     6    1    6 1    
     7    3    7 2    
     8    5    8 1    
     9    1    9 1    
    10    1   10 1    
    11    2   11 1    
    12    2   12 1    
    13    4   13 1    
    14    6   14 1    
    15    6   15 1    
    16    8   16 1    
    17    8   17 1    
    18    8   18 1    
    19   15   19 2    
    20   19   20 1    
    21   20   21 2    
    22   21   22 1    
    23   20   23 1    
    24   22   24 2    
    25   22   25 1    
    26    9   26 1    
    27    9   27 1    
    28    9   28 1    
    29   10   29 1    
    30   10   30 1    
    31   10   31 1    
    32   14   32 1    
    33   15   33 1    
    34   19   34 1    
    35   21   35 1    
    36   23   36 1    
    37   23   37 1    
    38   23   38 1    
    39   25   39 1    
@<TRIPOS>SUBSTRUCTURE
     1 ****        2 TEMP              0 ****  ****    0 ROOT 
@<TRIPOS>NORMAL
@<TRIPOS>FF_PBC
FORCE_FIELD_SETUP_FEATURE Force Field Setup information
v1.0  0 0.000000 0.000000 0.000000 0.000000 0.000000 0.000000 NONE 0 0 0 0 0 0 0 0 0 0 0 0 0
@<TRIPOS>RENDERING_ATTRS
ANTIALIASED_LINES 
*
