#	Name:			PISM01171
#	Creating user name:	baoopengkun
#	Creation time:		Tue Dec 18 16:49:53 2018

#	Modifying user name:	baoopengkun
#	Modification time:	Tue Dec 18 16:52:01 2018

@<TRIPOS>MOLECULE
PISM01171
   46    46     1     1     0
SMALL
GAST_HUCK


@<TRIPOS>ATOM
      1 C1          4.0484   27.2239   -6.5961 C.ar      1 <1>        -0.0686 
      2 C2          5.0573   27.3761   -5.6404 C.ar      1 <1>        -0.0603 
      3 C3          4.8860   28.2536   -4.5634 C.ar      1 <1>        -0.0413 
      4 C4          3.6981   28.9866   -4.4588 C.ar      1 <1>        -0.0603 
      5 C5          2.6879   28.8361   -5.4134 C.ar      1 <1>        -0.0686 
      6 C6          2.8614   27.9529   -6.4824 C.ar      1 <1>        -0.0687 
      7 C7          5.9912   28.4107   -3.5087 C.3       1 <1>         0.0008 
      8 C8          6.9791   29.5243   -3.9565 C.3       1 <1>         0.0585 
      9 C9          8.1908   29.6842   -2.9869 C.3       1 <1>         0.1605 
     10 C10         7.8092   30.3257   -1.6714 C.2       1 <1>         0.2090 
     11 O11         6.6374   30.5179   -1.3908 O.2       1 <1>        -0.3940 
     12 N12         8.8052   30.6837   -0.8330 N.am      1 <1>        -0.2621 
     13 C13         8.4951   31.3408    0.4375 C.3       1 <1>         0.1423 
     14 C14         9.6451   31.1804    1.4032 C.2       1 <1>         0.2571 
     15 O15         9.4882   30.7805    2.5461 O.2       1 <1>        -0.3680 
     16 O16        10.8467   31.5049    0.9248 O.3       1 <1>        -0.2910 
     17 C17         8.2318   32.8446    0.1518 C.3       1 <1>        -0.0087 
     18 C18         8.0469   33.7255    1.4249 C.3       1 <1>        -0.0424 
     19 C19         7.8329   35.2081    1.0078 C.3       1 <1>        -0.0624 
     20 C20         6.8556   33.2489    2.3020 C.3       1 <1>        -0.0624 
     21 O21         9.2225   30.5047   -3.5771 O.3       1 <1>        -0.3697 
     22 N22         6.2616   30.8057   -4.1364 N.3       1 <1>        -0.3216 
     23 H1          4.1865   26.5392   -7.4274 H         1 <1>         0.0599 
     24 H2          5.9768   26.8083   -5.7411 H         1 <1>         0.0557 
     25 H3          3.5548   29.6788   -3.6352 H         1 <1>         0.0557 
     26 H4          1.7680   29.4061   -5.3246 H         1 <1>         0.0599 
     27 H5          2.0762   27.8335   -7.2227 H         1 <1>         0.0559 
     28 H6          6.5223   27.4524   -3.3953 H         1 <1>         0.0443 
     29 H7          5.5348   28.6473   -2.5366 H         1 <1>         0.0443 
     30 H8          7.3670   29.2152   -4.9427 H         1 <1>         0.0532 
     31 H9          8.6100   28.6921   -2.7506 H         1 <1>         0.0855 
     32 H10         9.7644   30.5637   -1.0994 H         1 <1>         0.1885 
     33 H11         7.6092   30.8690    0.8928 H         1 <1>         0.0816 
     34 H12        11.5189   31.3857    1.5869 H         1 <1>         0.2540 
     35 H13         7.3379   32.9321   -0.4863 H         1 <1>         0.0316 
     36 H14         9.0916   33.2281   -0.4215 H         1 <1>         0.0316 
     37 H15         8.9664   33.6826    2.0351 H         1 <1>         0.0298 
     38 H16         8.6822   35.5680    0.4064 H         1 <1>         0.0232 
     39 H17         7.7467   35.8529    1.8964 H         1 <1>         0.0232 
     40 H18         6.9129   35.3109    0.4118 H         1 <1>         0.0232 
     41 H19         6.6888   33.9502    3.1343 H         1 <1>         0.0232 
     42 H20         7.0523   32.2594    2.7404 H         1 <1>         0.0232 
     43 H21         5.9346   33.1952    1.7015 H         1 <1>         0.0232 
     44 H22         9.5721   30.1552   -4.3911 H         1 <1>         0.2134 
     45 H23         6.9409   31.5756   -4.4781 H         1 <1>         0.1188 
     46 H24         5.8081   31.1195   -3.2038 H         1 <1>         0.1188 
@<TRIPOS>BOND
     1    2    1 ar   
     2    2    3 ar   
     3    3    4 ar   
     4    4    5 ar   
     5    5    6 ar   
     6    1    6 ar   
     7    3    7 1    
     8    7    8 1    
     9    8    9 1    
    10    9   10 1    
    11   10   11 2    
    12   10   12 am   
    13   12   13 1    
    14   13   14 1    
    15   14   15 2    
    16   14   16 1    
    17   13   17 1    
    18   17   18 1    
    19   18   19 1    
    20   18   20 1    
    21    9   21 1    
    22    8   22 1    
    23    1   23 1    
    24    2   24 1    
    25    4   25 1    
    26    5   26 1    
    27    6   27 1    
    28    7   28 1    
    29    7   29 1    
    30    8   30 1    
    31    9   31 1    
    32   12   32 1    
    33   13   33 1    
    34   16   34 1    
    35   17   35 1    
    36   17   36 1    
    37   18   37 1    
    38   19   38 1    
    39   19   39 1    
    40   19   40 1    
    41   20   41 1    
    42   20   42 1    
    43   20   43 1    
    44   21   44 1    
    45   22   45 1    
    46   22   46 1    
@<TRIPOS>SUBSTRUCTURE
     1 ****        2 TEMP              0 ****  ****    0 ROOT 
@<TRIPOS>NORMAL
@<TRIPOS>FF_PBC
FORCE_FIELD_SETUP_FEATURE Force Field Setup information
v1.0  0 0.000000 0.000000 0.000000 0.000000 0.000000 0.000000 NONE 0 0 0 0 1 0 0 0 0 0 0 0 0
