#	Name:			PISM00617
#	Creating user name:	baoopengkun
#	Creation time:		Mon Dec 10 10:37:38 2018

#	Modifying user name:	baoopengkun
#	Modification time:	Mon Dec 10 10:37:50 2018

@<TRIPOS>MOLECULE
PISM00617
   47    50     1     2     0
SMALL
GAST_HUCK


@<TRIPOS>ATOM
      1 C1         -2.7405    8.4853   -7.2929 C.ar      1 <1>        -0.0348 
      2 C2         -3.9802    8.7163   -7.8963 C.ar      1 <1>        -0.0180 
      3 C3         -4.8905    7.6671   -8.0494 C.ar      1 <1>         0.0714 
      4 C4         -4.5651    6.3892   -7.5872 C.ar      1 <1>        -0.0180 
      5 C5         -3.3236    6.1586   -6.9879 C.ar      1 <1>        -0.0348 
      6 C6         -2.4005    7.2010   -6.8542 C.ar      1 <1>         0.0068 
      7 C7         -1.0278    6.9246   -6.2233 C.3       1 <1>         0.1921 
      8 C8         -1.1480    7.0266   -4.6821 C.3       1 <1>         0.1073 
      9 N9          0.0447    6.6681   -3.9260 N.pl3     1 <1>        -0.1814 
     10 N10         0.1010    6.4502   -2.5817 N.2       1 <1>        -0.1908 
     11 C11         1.2696    6.1253   -2.1697 C.2       1 <1>         0.0618 
     12 N12         2.0033    6.1443   -3.4046 N.2       1 <1>        -0.2870 
     13 C13         1.2504    6.4555   -4.3596 C.2       1 <1>         0.1270 
     14 O14        -0.0184    7.7983   -6.7449 O.3       1 <1>        -0.3814 
     15 C15         0.2648    7.3391   -8.0690 C.3       1 <1>         0.0672 
     16 C16         0.1548    5.8044   -7.8913 C.3       1 <1>         0.1001 
     17 O17        -0.5374    5.6421   -6.6402 O.3       1 <1>        -0.3758 
     18 C18        -0.5606    5.1072   -9.0754 C.3       1 <1>         0.0961 
     19 O19        -0.4807    3.6800   -8.9168 O.3       1 <1>        -0.3191 
     20 C20        -1.0616    2.9603   -9.9613 C.ar      1 <1>         0.0926 
     21 C21        -0.3342    2.7343  -11.1332 C.ar      1 <1>        -0.0396 
     22 C22        -0.9156    2.0431  -12.1995 C.ar      1 <1>        -0.0776 
     23 C23        -2.2265    1.5716  -12.0877 C.ar      1 <1>        -0.0797 
     24 C24        -2.9478    1.7835  -10.9091 C.ar      1 <1>        -0.0691 
     25 C25        -2.3660    2.4684   -9.8361 C.ar      1 <1>        -0.0167 
     26 Cl26       -6.4381    7.9531   -8.8188 Cl        1 <1>        -0.0420 
     27 H1         -2.0419    9.3067   -7.1653 H         1 <1>         0.0849 
     28 H2         -4.2385    9.7106   -8.2466 H         1 <1>         0.0703 
     29 H3         -5.2788    5.5786   -7.6941 H         1 <1>         0.0703 
     30 H4         -3.0749    5.1671   -6.6227 H         1 <1>         0.0849 
     31 H5         -1.9507    6.3539   -4.3453 H         1 <1>         0.0595 
     32 H6         -1.4172    8.0595   -4.4168 H         1 <1>         0.0595 
     33 H7          1.6109    5.8970   -1.1612 H         1 <1>         0.0863 
     34 H8          1.6013    6.5236   -5.3869 H         1 <1>         0.1361 
     35 H9          1.2564    7.6764   -8.4089 H         1 <1>         0.0576 
     36 H10        -0.4994    7.7219   -8.7636 H         1 <1>         0.0576 
     37 H11         1.1552    5.3598   -7.7637 H         1 <1>         0.0635 
     38 H12        -0.0613    5.4031  -10.0123 H         1 <1>         0.0637 
     39 H13        -1.6133    5.4278   -9.1134 H         1 <1>         0.0637 
     40 H40         0.6851    3.0977  -11.2114 H         1 <1>         0.0521 
     41 H41        -0.3511    1.8728  -13.1113 H         1 <1>         0.0531 
     42 H42        -2.6842    1.0399  -12.9166 H         1 <1>         0.0505 
     43 H43        -3.9652    1.4133  -10.8313 H         1 <1>         0.0526 
     44 C45        -3.1568    2.6741   -8.5392 C.3       1 <1>        -0.0330 
     45 H16        -3.7814    3.5717   -8.6493 H         1 <1>         0.0368 
     46 H14        -2.4841    2.8034   -7.6781 H         1 <1>         0.0368 
     47 H15        -3.8053    1.8076   -8.3406 H         1 <1>         0.0368 
@<TRIPOS>BOND
     1    1    2 ar   
     2    2    3 ar   
     3    3    4 ar   
     4    4    5 ar   
     5    5    6 ar   
     6    6    1 ar   
     7    6    7 1    
     8    7    8 1    
     9    8    9 1    
    10    9   10 1    
    11   10   11 2    
    12   11   12 1    
    13   12   13 2    
    14    9   13 1    
    15    7   14 1    
    16   14   15 1    
    17   15   16 1    
    18   16   17 1    
    19   17    7 1    
    20   16   18 1    
    21   18   19 1    
    22   19   20 1    
    23   20   21 ar   
    24   21   22 ar   
    25   22   23 ar   
    26   23   24 ar   
    27   24   25 ar   
    28   25   20 ar   
    29    3   26 1    
    30    1   27 1    
    31    2   28 1    
    32    4   29 1    
    33    5   30 1    
    34    8   31 1    
    35    8   32 1    
    36   11   33 1    
    37   13   34 1    
    38   15   35 1    
    39   15   36 1    
    40   16   37 1    
    41   18   38 1    
    42   18   39 1    
    43   21   40 1    
    44   22   41 1    
    45   23   42 1    
    46   24   43 1    
    47   25   44 1    
    48   44   45 1    
    49   44   46 1    
    50   44   47 1    
@<TRIPOS>SUBSTRUCTURE
     1 ****        2 TEMP              0 ****  ****    0 ROOT 
@<TRIPOS>NORMAL
@<TRIPOS>FF_PBC
FORCE_FIELD_SETUP_FEATURE Force Field Setup information
v1.0  0 0.000000 0.000000 0.000000 0.000000 0.000000 0.000000 NONE 0 0 0 0 1 0 0 0 0 0 0 0 0
@<TRIPOS>RENDERING_ATTRS
ANTIALIASED_LINES 
*
