#	Name:			PISM00383
#	Creating user name:	baoopengkun
#	Creation time:		Sun Mar 31 22:04:51 2019

#	Modifying user name:	baoopengkun
#	Modification time:	Sun Mar 31 22:09:13 2019

@<TRIPOS>MOLECULE
PISM00383
   97    98     1     1     0
SMALL
GAST_HUCK


@<TRIPOS>ATOM
      1 C1         10.1269   -0.0943   -4.4661 C.3       1 <1>        -0.0439 
      2 C2         10.8836    0.9009   -3.5387 C.3       1 <1>         0.0170 
      3 C3         10.5145    2.3032   -3.9119 C.2       1 <1>         0.1401 
      4 C4         10.8476    2.6860   -5.3291 C.ar      1 <1>         0.0312 
      5 C5         11.0012    1.6459   -6.2500 C.ar      1 <1>        -0.0611 
      6 C6         10.2655    0.3038   -5.9956 C.3       1 <1>         0.0299 
      7 C7         10.7199   -1.5152   -4.2096 C.3       1 <1>        -0.0709 
      8 C8          8.6411   -0.1287   -3.9793 C.3       1 <1>        -0.0709 
      9 O9         10.0071    3.0867   -3.1259 O.2       1 <1>        -0.3711 
     10 C10        11.7941    1.9069   -7.3756 C.ar      1 <1>        -0.0576 
     11 C11        12.0869    3.2274   -7.7286 C.ar      1 <1>        -0.0074 
     12 C12        11.5981    4.2848   -6.9566 C.ar      1 <1>         0.1212 
     13 C13        11.0230    4.0176   -5.7132 C.ar      1 <1>         0.0066 
     14 O14        10.9041   -0.7749   -6.7092 O.3       1 <1>        -0.4653 
     15 C15         8.8984    0.5473   -6.6102 C.2       1 <1>        -0.0894 
     16 C16         8.1534   -0.4083   -7.1823 C.2       1 <1>        -0.0172 
     17 C17         6.8279   -0.1274   -7.7783 C.2       1 <1>         0.0244 
     18 C18         6.6575    1.1629   -8.5547 C.3       1 <1>        -0.0129 
     19 C19         5.7887   -0.9710   -7.6598 C.2       1 <1>         0.0649 
     20 C20         5.7670   -2.2581   -6.9216 C.2       1 <1>         0.2748 
     21 O21         6.6952   -2.5857   -6.2047 O.2       1 <1>        -0.3457 
     22 O22         4.7315   -3.1006   -7.0054 O.3       1 <1>        -0.2917 
     23 O23        11.6877    5.5926   -7.4313 O.3       1 <1>        -0.3008 
     24 C24        10.5124    6.0526   -8.1252 C.3       1 <1>         0.0765 
     25 C25        10.1589    5.1227   -9.3169 C.3       1 <1>        -0.0240 
     26 C26         9.0403    5.7016  -10.2249 C.3       1 <1>        -0.0505 
     27 C27         8.6721    4.6714  -11.3270 C.3       1 <1>        -0.0530 
     28 C28         7.6357    5.2206  -12.3453 C.3       1 <1>        -0.0531 
     29 C29         7.2790    4.1136  -13.3745 C.3       1 <1>        -0.0531 
     30 C30         6.3244    4.6093  -14.4952 C.3       1 <1>        -0.0531 
     31 C31         5.9854    3.4315  -15.4495 C.3       1 <1>        -0.0531 
     32 C32         5.0811    3.8529  -16.6395 C.3       1 <1>        -0.0531 
     33 C33         4.7488    2.6116  -17.5136 C.3       1 <1>        -0.0531 
     34 C34         3.8609    2.9624  -18.7375 C.3       1 <1>        -0.0531 
     35 C35         3.5252    1.6812  -19.5501 C.3       1 <1>        -0.0531 
     36 C36         2.6862    1.9988  -20.8178 C.3       1 <1>        -0.0531 
     37 C37         2.3502    0.6957  -21.5941 C.3       1 <1>        -0.0531 
     38 C38         1.5173    0.9807  -22.8741 C.3       1 <1>        -0.0531 
     39 C39         1.1836   -0.3431  -23.6175 C.3       1 <1>        -0.0533 
     40 H1         11.9695    0.8046   -3.6955 H         1 <1>         0.0477 
     41 H2         10.6810    0.7210   -2.4715 H         1 <1>         0.0477 
     42 H3         11.7805   -1.5549   -4.5023 H         1 <1>         0.0222 
     43 H4         10.1712   -2.2720   -4.7912 H         1 <1>         0.0222 
     44 H5         10.6532   -1.7879   -3.1454 H         1 <1>         0.0222 
     45 H6          8.0552   -0.8718   -4.5392 H         1 <1>         0.0222 
     46 H7          8.1633    0.8563   -4.0905 H         1 <1>         0.0222 
     47 H8          8.5795   -0.4078   -2.9161 H         1 <1>         0.0222 
     48 H9         12.1893    1.1087   -7.9906 H         1 <1>         0.0743 
     49 H10        12.6845    3.4385   -8.6086 H         1 <1>         0.0645 
     50 H11        10.7283    4.8301   -5.0572 H         1 <1>         0.0670 
     51 H12        10.8802   -0.7013   -7.6564 H         1 <1>         0.1810 
     52 H13         8.4935    1.5598   -6.5631 H         1 <1>         0.0514 
     53 H14         8.5392   -1.4272   -7.2033 H         1 <1>         0.1108 
     54 H15         5.9971    1.0316   -9.4258 H         1 <1>         0.0430 
     55 H16         7.6265    1.5272   -8.9301 H         1 <1>         0.0430 
     56 H17         6.2238    1.9300   -7.8951 H         1 <1>         0.0430 
     57 H18         4.8558   -0.6861   -8.1441 H         1 <1>         0.0983 
     58 H19         4.0246   -2.8228   -7.5740 H         1 <1>         0.2518 
     59 H20        10.7373    7.0647   -8.4968 H         1 <1>         0.0626 
     60 H21         9.6603    6.1208   -7.4289 H         1 <1>         0.0626 
     61 H22         9.8265    4.1461   -8.9284 H         1 <1>         0.0292 
     62 H23        11.0675    4.9684   -9.9216 H         1 <1>         0.0292 
     63 H24         9.3928    6.6366  -10.6903 H         1 <1>         0.0266 
     64 H25         8.1470    5.9281   -9.6202 H         1 <1>         0.0266 
     65 H26         8.2634    3.7661  -10.8475 H         1 <1>         0.0265 
     66 H27         9.5871    4.3868  -11.8729 H         1 <1>         0.0265 
     67 H28         8.0609    6.0927  -12.8686 H         1 <1>         0.0265 
     68 H29         6.7233    5.5428  -11.8170 H         1 <1>         0.0265 
     69 H30         6.8056    3.2728  -12.8406 H         1 <1>         0.0265 
     70 H31         8.2072    3.7445  -13.8414 H         1 <1>         0.0265 
     71 H32         6.8108    5.4203  -15.0622 H         1 <1>         0.0265 
     72 H33         5.3972    5.0050  -14.0486 H         1 <1>         0.0265 
     73 H34         5.4756    2.6439  -14.8708 H         1 <1>         0.0265 
     74 H35         6.9224    3.0113  -15.8506 H         1 <1>         0.0265 
     75 H36         5.6021    4.6095  -17.2493 H         1 <1>         0.0265 
     76 H37         4.1484    4.2986  -16.2567 H         1 <1>         0.0265 
     77 H38         4.2236    1.8668  -16.8930 H         1 <1>         0.0265 
     78 H39         5.6885    2.1597  -17.8717 H         1 <1>         0.0265 
     79 H40         4.3944    3.6799  -19.3815 H         1 <1>         0.0265 
     80 H41         2.9256    3.4328  -18.3923 H         1 <1>         0.0265 
     81 H42         2.9618    0.9838  -18.9080 H         1 <1>         0.0265 
     82 H43         4.4622    1.1861  -19.8550 H         1 <1>         0.0265 
     83 H44         3.2544    2.6810  -21.4717 H         1 <1>         0.0265 
     84 H45         1.7510    2.5017  -20.5219 H         1 <1>         0.0265 
     85 H46         1.7813    0.0181  -20.9356 H         1 <1>         0.0265 
     86 H47         3.2901    0.1922  -21.8753 H         1 <1>         0.0265 
     87 H48         2.0880    1.6448  -23.5434 H         1 <1>         0.0265 
     88 H49         0.5902    1.4964  -22.5795 H         1 <1>         0.0265 
     89 H50         2.1253   -0.8825  -23.8153 H         1 <1>         0.0265 
     90 C90         0.4590   -0.1303  -24.9770 C.3       1 <1>        -0.0559 
     91 H52         0.5607   -0.9804  -22.9683 H         1 <1>         0.0265 
     92 H51         1.0896    0.4753  -25.6491 H         1 <1>         0.0263 
     93 C93        -0.9310    0.5426  -24.8294 C.3       1 <1>        -0.0653 
     94 H54         0.3158   -1.1177  -25.4489 H         1 <1>         0.0263 
     95 H53        -0.8331    1.5916  -24.5126 H         1 <1>         0.0230 
     96 H55        -1.5456    0.0029  -24.0922 H         1 <1>         0.0230 
     97 H56        -1.4551    0.5286  -25.7982 H         1 <1>         0.0230 
@<TRIPOS>BOND
     1    2    1 1    
     2    2    3 1    
     3    3    4 1    
     4    4    5 ar   
     5    5    6 1    
     6    1    6 1    
     7    1    7 1    
     8    1    8 1    
     9    3    9 2    
    10    5   10 ar   
    11   10   11 ar   
    12   11   12 ar   
    13   12   13 ar   
    14    4   13 ar   
    15    6   14 1    
    16    6   15 1    
    17   15   16 2    
    18   16   17 1    
    19   17   18 1    
    20   17   19 2    
    21   19   20 1    
    22   20   21 2    
    23   20   22 1    
    24   12   23 1    
    25   23   24 1    
    26   24   25 1    
    27   25   26 1    
    28   26   27 1    
    29   27   28 1    
    30   28   29 1    
    31   29   30 1    
    32   30   31 1    
    33   31   32 1    
    34   32   33 1    
    35   33   34 1    
    36   34   35 1    
    37   35   36 1    
    38   36   37 1    
    39   37   38 1    
    40   38   39 1    
    41    2   40 1    
    42    2   41 1    
    43    7   42 1    
    44    7   43 1    
    45    7   44 1    
    46    8   45 1    
    47    8   46 1    
    48    8   47 1    
    49   10   48 1    
    50   11   49 1    
    51   13   50 1    
    52   14   51 1    
    53   15   52 1    
    54   16   53 1    
    55   18   54 1    
    56   18   55 1    
    57   18   56 1    
    58   19   57 1    
    59   22   58 1    
    60   24   59 1    
    61   24   60 1    
    62   25   61 1    
    63   25   62 1    
    64   26   63 1    
    65   26   64 1    
    66   27   65 1    
    67   27   66 1    
    68   28   67 1    
    69   28   68 1    
    70   29   69 1    
    71   29   70 1    
    72   30   71 1    
    73   30   72 1    
    74   31   73 1    
    75   31   74 1    
    76   32   75 1    
    77   32   76 1    
    78   33   77 1    
    79   33   78 1    
    80   34   79 1    
    81   34   80 1    
    82   35   81 1    
    83   35   82 1    
    84   36   83 1    
    85   36   84 1    
    86   37   85 1    
    87   37   86 1    
    88   38   87 1    
    89   38   88 1    
    90   39   89 1    
    91   39   90 1    
    92   39   91 1    
    93   90   92 1    
    94   90   93 1    
    95   90   94 1    
    96   93   95 1    
    97   93   96 1    
    98   93   97 1    
@<TRIPOS>SUBSTRUCTURE
     1 ****        2 TEMP              0 ****  ****    0 ROOT 
@<TRIPOS>NORMAL
@<TRIPOS>FF_PBC
FORCE_FIELD_SETUP_FEATURE Force Field Setup information
v1.0  0 0.000000 0.000000 0.000000 0.000000 0.000000 0.000000 NONE 0 0 0 0 1 0 0 0 0 0 0 0 0
