#	Name:			PISM01097
#	Creating user name:	Qinrunwen
#	Creation time:		Mon Apr 01 14:08:26 2019

#	Modifying user name:	Qinrunwen
#	Modification time:	Mon Apr 01 14:11:43 2019

@<TRIPOS>MOLECULE
PISM01097
   39    41     1     1     0
SMALL
GAST_HUCK


@<TRIPOS>ATOM
      1 C1          8.7110   30.8770   -0.8450 C.ar      1 <1>        -0.0524 
      2 C2          7.3299   30.9468   -1.0665 C.ar      1 <1>         0.0396 
      3 C3          6.8344   31.1334   -2.3606 C.ar      1 <1>         0.1379 
      4 C4          7.7292   31.1571   -3.4362 C.ar      1 <1>         0.1301 
      5 C5          9.1051   31.0560   -3.2170 C.ar      1 <1>        -0.0232 
      6 C6          9.6114   30.9529   -1.9153 C.ar      1 <1>        -0.0230 
      7 I7          6.0291   30.7908    0.5167 I         1 <1>        -0.0568 
      8 O8          5.4624   31.3042   -2.5764 O.3       1 <1>        -0.3277 
      9 O9          7.2412   31.3010   -4.7372 O.3       1 <1>        -0.3224 
     10 C10         6.9059   30.0641   -5.3919 C.3       1 <1>         0.0572 
     11 C11        11.1089   30.9629   -1.6924 C.2       1 <1>        -0.0323 
     12 C12        11.9828   30.2070   -2.3718 C.2       1 <1>         0.0739 
     13 C13        13.4506   30.3264   -2.3323 C.2       1 <1>         0.2534 
     14 N14        13.9573   29.5525   -3.2527 N.pl3     1 <1>        -0.1348 
     15 C15        11.8167   29.1166   -3.3452 C.2       1 <1>         0.0441 
     16 N16        12.9604   28.8307   -3.8140 N.2       1 <1>        -0.2037 
     17 C17        10.5813   28.3615   -3.7542 C.3       1 <1>        -0.0197 
     18 C18        15.2692   29.4772   -3.5806 C.ar      1 <1>         0.0954 
     19 C19        16.0731   30.6252   -3.6193 C.ar      1 <1>        -0.0338 
     20 C20        17.4240   30.5362   -3.9728 C.ar      1 <1>        -0.0567 
     21 C21        17.9764   29.2981   -4.3172 C.ar      1 <1>         0.0420 
     22 C22        17.1831   28.1496   -4.2812 C.ar      1 <1>         0.0452 
     23 C23        15.8356   28.2429   -3.9141 C.ar      1 <1>        -0.0202 
     24 Cl24       19.6624   29.2065   -4.7896 Cl        1 <1>        -0.0806 
     25 Cl25       17.8674   26.5887   -4.6927 Cl        1 <1>        -0.0730 
     26 O26        14.0589   31.0611   -1.5698 O.2       1 <1>        -0.3653 
     27 H1          9.0751   30.7699    0.1703 H         1 <1>         0.0598 
     28 H2          9.7771   31.0717   -4.0675 H         1 <1>         0.0572 
     29 H3          5.2730   31.6465   -3.4453 H         1 <1>         0.2497 
     30 H4          6.1261   29.5190   -4.8350 H         1 <1>         0.0573 
     31 H5          7.7930   29.4219   -5.5050 H         1 <1>         0.0573 
     32 H6          6.5219   30.3053   -6.3937 H         1 <1>         0.0573 
     33 H7         11.4968   31.6586   -0.9491 H         1 <1>         0.0806 
     34 H8         10.2960   28.6156   -4.7858 H         1 <1>         0.0398 
     35 H9          9.7367   28.5413   -3.0751 H         1 <1>         0.0398 
     36 H10        10.8292   27.2923   -3.7021 H         1 <1>         0.0398 
     37 H11        15.6518   31.5972   -3.3922 H         1 <1>         0.0543 
     38 H12        18.0430   31.4308   -3.9847 H         1 <1>         0.0594 
     39 H13        15.2260   27.3468   -3.8886 H         1 <1>         0.0546 
@<TRIPOS>BOND
     1    2    1 ar   
     2    2    3 ar   
     3    3    4 ar   
     4    4    5 ar   
     5    6    5 ar   
     6    1    6 ar   
     7    2    7 1    
     8    3    8 1    
     9    4    9 1    
    10    9   10 1    
    11    6   11 1    
    12   11   12 2    
    13   12   13 1    
    14   13   14 1    
    15   12   15 1    
    16   15   16 2    
    17   15   17 1    
    18   14   18 1    
    19   18   19 ar   
    20   19   20 ar   
    21   20   21 ar   
    22   22   21 ar   
    23   23   22 ar   
    24   18   23 ar   
    25   21   24 1    
    26   22   25 1    
    27   13   26 2    
    28   14   16 1    
    29    1   27 1    
    30    5   28 1    
    31    8   29 1    
    32   10   30 1    
    33   10   31 1    
    34   10   32 1    
    35   11   33 1    
    36   17   34 1    
    37   17   35 1    
    38   17   36 1    
    39   19   37 1    
    40   20   38 1    
    41   23   39 1    
@<TRIPOS>SUBSTRUCTURE
     1 ****        2 TEMP              0 ****  ****    0 ROOT 
@<TRIPOS>NORMAL
@<TRIPOS>FF_PBC
FORCE_FIELD_SETUP_FEATURE Force Field Setup information
v1.0  0 0.000000 0.000000 0.000000 0.000000 0.000000 0.000000 NONE 0 0 0 0 1 0 0 0 0 0 0 0 0
