#	Name:			PISM00890
#	Creating user name:	baoopengkun
#	Creation time:		Fri Dec 14 09:30:18 2018

#	Modifying user name:	baoopengkun
#	Modification time:	Fri Dec 14 09:53:50 2018

@<TRIPOS>MOLECULE
PISM00890
   36    38     1     1     0
SMALL
GAST_HUCK


@<TRIPOS>ATOM
      1 C1         16.2687    7.2410   -6.0048 C.3       1 <1>        -0.0566 
      2 C2         17.5796    7.5338   -6.7796 C.3       1 <1>        -0.0602 
      3 C3         18.1463    8.9191   -6.3741 C.3       1 <1>        -0.0547 
      4 C4         17.0975   10.0296   -6.6400 C.3       1 <1>        -0.0602 
      5 C5         15.2140    8.3482   -6.2770 C.3       1 <1>         0.0537 
      6 C6         15.7849    9.7309   -5.8697 C.3       1 <1>        -0.0566 
      7 C7         13.9605    8.0970   -5.4764 C.2       1 <1>         0.0755 
      8 N8         13.9146    7.4879   -4.1686 N.2       1 <1>        -0.1953 
      9 N9         12.6001    7.4853   -3.8884 N.2       1 <1>        -0.0506 
     10 N10        11.9065    8.0447   -4.9023 N.pl3     1 <1>        -0.0810 
     11 C11        12.7184    8.4033   -5.8569 C.2       1 <1>         0.1346 
     12 C12        10.4613    8.1837   -4.9226 C.3       1 <1>         0.2558 
     13 C13        10.0950    9.4443   -4.1779 C.2       1 <1>         0.0036 
     14 C14         9.5207   10.3210   -4.9994 C.2       1 <1>         0.0297 
     15 C15         9.4936    9.6222   -6.2796 C.2       1 <1>         0.2500 
     16 O16         9.9925    8.3922   -6.2705 O.3       1 <1>        -0.2266 
     17 O17         9.0446   10.1252   -7.2943 O.2       1 <1>        -0.3691 
     18 C18         9.0055   11.6986   -4.6837 C.3       1 <1>        -0.0323 
     19 O19        14.8741    8.3974   -7.6755 O.3       1 <1>        -0.4351 
     20 H1         15.8664    6.2609   -6.3088 H         1 <1>         0.0168 
     21 H2         16.4894    7.1966   -4.9258 H         1 <1>         0.0168 
     22 H3         17.3796    7.5196   -7.8636 H         1 <1>         0.0257 
     23 H4         18.3237    6.7499   -6.5596 H         1 <1>         0.0257 
     24 H5         19.0630    9.1284   -6.9508 H         1 <1>         0.0265 
     25 H6         18.4104    8.9108   -5.3037 H         1 <1>         0.0265 
     26 H7         16.8860   10.0848   -7.7206 H         1 <1>         0.0257 
     27 H8         17.5008   11.0055   -6.3215 H         1 <1>         0.0257 
     28 H9         15.0412   10.5133   -6.0936 H         1 <1>         0.0168 
     29 H10        15.9836    9.7460   -4.7854 H         1 <1>         0.0168 
     30 H11        12.4634    8.8736   -6.8067 H         1 <1>         0.1589 
     31 H12         9.9811    7.2950   -4.4821 H         1 <1>         0.1265 
     32 H13        10.2835    9.6111   -3.1178 H         1 <1>         0.0710 
     33 H14         8.2460   11.9959   -5.4224 H         1 <1>         0.0347 
     34 H15         9.8378   12.4171   -4.7175 H         1 <1>         0.0347 
     35 H16         8.5529   11.7177   -3.6809 H         1 <1>         0.0347 
     36 H17        14.5653    7.5626   -8.0123 H         1 <1>         0.1920 
@<TRIPOS>BOND
     1    5    1 1    
     2    1    2 1    
     3    2    3 1    
     4    3    4 1    
     5    4    6 1    
     6    5    6 1    
     7    5    7 1    
     8    7    8 1    
     9    8    9 2    
    10   10    9 1    
    11   11   10 1    
    12    7   11 2    
    13   10   12 1    
    14   12   13 1    
    15   13   14 2    
    16   15   14 1    
    17   16   15 1    
    18   12   16 1    
    19   15   17 2    
    20   14   18 1    
    21    5   19 1    
    22    1   20 1    
    23    1   21 1    
    24    2   22 1    
    25    2   23 1    
    26    3   24 1    
    27    3   25 1    
    28    4   26 1    
    29    4   27 1    
    30    6   28 1    
    31    6   29 1    
    32   11   30 1    
    33   12   31 1    
    34   13   32 1    
    35   18   33 1    
    36   18   34 1    
    37   18   35 1    
    38   19   36 1    
@<TRIPOS>SUBSTRUCTURE
     1 ****        5 TEMP              0 ****  ****    0 ROOT 
@<TRIPOS>NORMAL
@<TRIPOS>FF_PBC
FORCE_FIELD_SETUP_FEATURE Force Field Setup information
v1.0  0 0.000000 0.000000 0.000000 0.000000 0.000000 0.000000 NONE 0 0 0 0 1 0 0 0 0 0 0 0 0
