#	Name:			PISM00028
#	Creating user name:	baoopengkun
#	Creation time:		Sat Nov 17 17:39:26 2018

#	Modifying user name:	baoopengkun
#	Modification time:	Sat Nov 17 17:44:13 2018

@<TRIPOS>MOLECULE
PISM00028
   40    42     1     2     0
SMALL
GAST_HUCK


@<TRIPOS>ATOM
      1 C1         -1.7659   -0.3489    3.0256 C.ar      1 <1>        -0.0548 
      2 C2         -2.0901    0.7342    3.8454 C.ar      1 <1>        -0.0697 
      3 C3         -3.3079    0.7476    4.5284 C.ar      1 <1>        -0.0683 
      4 C4         -4.2222   -0.2909    4.3406 C.ar      1 <1>        -0.0289 
      5 C5         -3.9159   -1.3627    3.4902 C.ar      1 <1>         0.1087 
      6 C6         -2.6563   -1.4194    2.8771 C.ar      1 <1>         0.0623 
      7 C7         -2.2723   -2.6510    2.0803 C.2       1 <1>         0.1588 
      8 N8         -2.9416   -3.7136    2.0942 N.2       1 <1>        -0.2917 
      9 C9         -2.3352   -4.7449    1.2983 C.2       1 <1>         0.1232 
     10 N10        -1.3003   -4.1483    0.8425 N.2       1 <1>        -0.1878 
     11 N11        -1.1844   -2.7653    1.3014 N.am      1 <1>        -0.1925 
     12 O12        -4.8417   -2.3847    3.2357 O.3       1 <1>        -0.3166 
     13 C13        -6.1932   -2.3513    3.7195 C.3       1 <1>         0.0610 
     14 S14        -2.8747   -6.4191    1.0430 S.3       1 <1>        -0.0685 
     15 C15        -1.8785   -7.1296    2.3948 C.3       1 <1>         0.0801 
     16 C16        -2.3082   -6.5005    3.6998 C.2       1 <1>         0.1341 
     17 C17        -1.8072   -5.1598    4.2038 C.ar      1 <1>         0.0133 
     18 C18        -0.5488   -4.6440    3.8645 C.ar      1 <1>        -0.0230 
     19 C19        -0.1411   -3.3860    4.3279 C.ar      1 <1>         0.1221 
     20 C20        -0.9888   -2.6385    5.1519 C.ar      1 <1>         0.1222 
     21 C21        -2.2420   -3.1473    5.4974 C.ar      1 <1>        -0.0347 
     22 C22        -2.6412   -4.4048    5.0359 C.ar      1 <1>        -0.0625 
     23 O23        -3.1284   -7.1028    4.3747 O.2       1 <1>        -0.3830 
     24 O24        -0.5963   -1.3867    5.6344 O.3       1 <1>        -0.3329 
     25 O25         1.1061   -2.8529    3.9801 O.3       1 <1>        -0.3357 
     26 H1         -0.8085   -0.3416    2.5201 H         1 <1>         0.0614 
     27 H2         -1.3970    1.5627    3.9560 H         1 <1>         0.0532 
     28 H3         -3.5427    1.5656    5.2030 H         1 <1>         0.0606 
     29 H4         -5.1664   -0.2405    4.8693 H         1 <1>         0.0547 
     30 H5         -0.4632   -2.1179    1.0683 H         1 <1>         0.2818 
     31 H6         -6.7081   -3.2391    3.3235 H         1 <1>         0.0581 
     32 H7         -6.7220   -1.4544    3.3613 H         1 <1>         0.0581 
     33 H8         -6.2211   -2.3976    4.8187 H         1 <1>         0.0581 
     34 H9         -0.8118   -7.0000    2.1746 H         1 <1>         0.0621 
     35 H10        -2.0820   -8.2108    2.4252 H         1 <1>         0.0621 
     36 H11         0.1262   -5.2128    3.2403 H         1 <1>         0.0559 
     37 H12        -2.9043   -2.5590    6.1229 H         1 <1>         0.0525 
     38 H13        -3.6153   -4.7885    5.3236 H         1 <1>         0.0554 
     39 H14         0.2783   -1.1499    5.3407 H         1 <1>         0.2465 
     40 H15         1.7207   -3.4924    3.6361 H         1 <1>         0.2443 
@<TRIPOS>BOND
     1    2    1 ar   
     2    2    3 ar   
     3    3    4 ar   
     4    4    5 ar   
     5    5    6 ar   
     6    1    6 ar   
     7    6    7 1    
     8    7    8 2    
     9    8    9 1    
    10    9   10 2    
    11   10   11 1    
    12    7   11 am   
    13    5   12 1    
    14   12   13 1    
    15    9   14 1    
    16   14   15 1    
    17   15   16 1    
    18   16   17 1    
    19   17   18 ar   
    20   18   19 ar   
    21   19   20 ar   
    22   20   21 ar   
    23   21   22 ar   
    24   17   22 ar   
    25   16   23 2    
    26   20   24 1    
    27   19   25 1    
    28    1   26 1    
    29    2   27 1    
    30    3   28 1    
    31    4   29 1    
    32   11   30 1    
    33   13   31 1    
    34   13   32 1    
    35   13   33 1    
    36   15   34 1    
    37   15   35 1    
    38   18   36 1    
    39   21   37 1    
    40   22   38 1    
    41   24   39 1    
    42   25   40 1    
@<TRIPOS>SUBSTRUCTURE
     1 ****        2 TEMP              0 ****  ****    0 ROOT 
@<TRIPOS>NORMAL
@<TRIPOS>FF_PBC
FORCE_FIELD_SETUP_FEATURE Force Field Setup information
v1.0  0 0.000000 0.000000 0.000000 0.000000 0.000000 0.000000 NONE 0 0 0 0 1 0 0 0 0 0 0 0 0
@<TRIPOS>RENDERING_ATTRS
ANTIALIASED_LINES 
*
