#	Name:			PISM01038.1
#	Creating user name:	malab
#	Creation time:		Thu Jul 04 18:17:05 2019

#	Modifying user name:	malab
#	Modification time:	Thu Jul 04 18:23:04 2019

@<TRIPOS>MOLECULE
PISM01038.1
   39    40     1     1     0
SMALL
GAST_HUCK


@<TRIPOS>ATOM
      1 N1          3.8929    9.7365   30.3255 N.2       1 CN         -0.1706 
      2 C2          4.9506   10.0471   30.9745 C.2       1 CN          0.0667 
      3 N3          5.1215   11.3967   30.5266 N.2       1 CN         -0.2811 
      4 C4          4.2144   11.7147   29.7207 C.2       1 CN          0.1515 
      5 N5          3.3863   10.7232   29.5266 N.pl3     1 CN         -0.1178 
      6 C6          2.3173   10.6746   28.7617 C.2       1 CN          0.1434 
      7 C7          1.6022    9.3239   28.7763 C.3       1 CN          0.1365 
      8 C8          2.1668    8.3070   27.7191 C.3       1 CN          0.0057 
      9 C9          3.6927    8.0656   27.9306 C.3       1 CN         -0.0550 
     10 C10         1.4526    6.9233   27.8329 C.3       1 CN         -0.0550 
     11 C11         1.9525    8.8517   26.2790 C.3       1 CN         -0.0550 
     12 O12         0.1824    9.5189   28.6372 O.3       1 CN         -0.3700 
     13 C13         1.9008   11.7316   28.0363 C.2       1 CN         -0.0257 
     14 C14         0.6593   11.8040   27.1733 C.ar      1 CN         -0.0423 
     15 C15         0.7807   11.8809   25.7820 C.ar      1 CN         -0.0578 
     16 C16        -0.3598   11.8696   24.9737 C.ar      1 CN         -0.0376 
     17 C17        -1.6296   11.8240   25.5563 C.ar      1 CN          0.0837 
     18 C18        -1.7559   11.8165   26.9482 C.ar      1 CN         -0.0376 
     19 C19        -0.6133   11.8295   27.7532 C.ar      1 CN         -0.0578 
     20 C          -2.8056   11.7880   24.7241 C.1       1 CN          0.0876 
     21 N          -3.7503   11.7591   24.0555 N.1       1 CN         -0.3388 
     22 H1          5.5468    9.4551   31.6676 H         1 CN          0.0887 
     23 H2          4.2295   12.7204   29.3065 H         1 CN          0.1397 
     24 H3          1.7325    8.8912   29.7831 H         1 CN          0.0866 
     25 H4          3.8809    7.6340   28.9251 H         1 CN          0.0238 
     26 H5          4.2669    8.9985   27.8318 H         1 CN          0.0238 
     27 H6          4.0841    7.3619   27.1799 H         1 CN          0.0238 
     28 H7          1.9421    6.1771   27.1882 H         1 CN          0.0238 
     29 H8          0.4011    6.9759   27.5156 H         1 CN          0.0238 
     30 H9          1.4899    6.5523   28.8686 H         1 CN          0.0238 
     31 H10         2.5545    9.7568   26.1203 H         1 CN          0.0238 
     32 H11         0.8917    9.0900   26.1083 H         1 CN          0.0238 
     33 H12         2.2622    8.1074   25.5293 H         1 CN          0.0238 
     34 H13        -0.3584    8.7512   28.7873 H         1 CN          0.2144 
     35 H14         2.4318   12.6774   27.9973 H         1 CN          0.0335 
     36 H15         1.7623   11.9513   25.3246 H         1 CN          0.0562 
     37 H16        -0.2593   11.8970   23.8930 H         1 CN          0.0688 
     38 H17        -2.7408   11.8012   27.4046 H         1 CN          0.0688 
     39 H18        -0.7154   11.8618   28.8336 H         1 CN          0.0562 
@<TRIPOS>BOND
     1    1    2 2    
     2    2    3 1    
     3    4    3 2    
     4    5    4 1    
     5    5    1 1    
     6    6    5 1    
     7    6    7 1    
     8    7    8 1    
     9    8    9 1    
    10    8   10 1    
    11    8   11 1    
    12    7   12 1    
    13   13    6 2    
    14   14   13 1    
    15   15   14 ar   
    16   16   15 ar   
    17   17   16 ar   
    18   17   18 ar   
    19   18   19 ar   
    20   19   14 ar   
    21   20   21 3    
    22   20   17 1    
    23    2   22 1    
    24    4   23 1    
    25    7   24 1    
    26    9   25 1    
    27    9   26 1    
    28    9   27 1    
    29   10   28 1    
    30   10   29 1    
    31   10   30 1    
    32   11   31 1    
    33   11   32 1    
    34   11   33 1    
    35   12   34 1    
    36   13   35 1    
    37   15   36 1    
    38   16   37 1    
    39   18   38 1    
    40   19   39 1    
@<TRIPOS>SUBSTRUCTURE
     1 CN         20 PERM              0 ****  ****    0 ROOT 
@<TRIPOS>NORMAL
@<TRIPOS>FF_PBC
FORCE_FIELD_SETUP_FEATURE Force Field Setup information
v1.0  0 0.000000 0.000000 0.000000 0.000000 0.000000 0.000000 NONE 0 0 0 0 1 0 0 0 0 0 0 0 0
