#	Name:			PISM01139
#	Creating user name:	baoopengkun
#	Creation time:		Mon Dec 17 17:59:37 2018

#	Modifying user name:	baoopengkun
#	Modification time:	Mon Dec 17 18:00:29 2018

@<TRIPOS>MOLECULE
PISM01139
   15    15     1     1     0
SMALL
GAST_HUCK


@<TRIPOS>ATOM
      1 C1         23.2455   15.8669   -4.6829 C.2       1 <1>        -0.0100 
      2 C2         24.4764   15.0820   -4.5795 C.2       1 <1>         0.1061 
      3 N3         25.4410   15.8996   -4.6404 N.2       1 <1>        -0.1923 
      4 N4         24.9705   17.1584   -4.7706 N.pl3     1 <1>        -0.1909 
      5 C5         23.6605   17.1335   -4.7953 C.2       1 <1>         0.1712 
      6 Cl6        24.5529   13.3430   -4.4071 Cl        1 <1>        -0.0657 
      7 C7         25.8331   18.3170   -4.9617 C.3       1 <1>         0.0618 
      8 C8         22.7440   18.2893   -4.9365 C.2       1 <1>         0.2883 
      9 O9         21.7468   18.1826   -5.6296 O.2       1 <1>        -0.3549 
     10 O10        22.9628   19.4507   -4.3124 O.3       1 <1>        -0.2919 
     11 H1         22.2219   15.4953   -4.6715 H         1 <1>         0.0444 
     12 H2         26.0696   18.7721   -3.9886 H         1 <1>         0.0606 
     13 H3         25.3711   19.0664   -5.6230 H         1 <1>         0.0606 
     14 H4         26.7732   17.9823   -5.4259 H         1 <1>         0.0606 
     15 H5         23.6830   19.4266   -3.6966 H         1 <1>         0.2521 
@<TRIPOS>BOND
     1    2    1 1    
     2    2    3 2    
     3    3    4 1    
     4    4    5 1    
     5    1    5 2    
     6    2    6 1    
     7    4    7 1    
     8    5    8 1    
     9    8    9 2    
    10    8   10 1    
    11    1   11 1    
    12    7   12 1    
    13    7   13 1    
    14    7   14 1    
    15   10   15 1    
@<TRIPOS>SUBSTRUCTURE
     1 ****        2 TEMP              0 ****  ****    0 ROOT 
@<TRIPOS>NORMAL
@<TRIPOS>FF_PBC
FORCE_FIELD_SETUP_FEATURE Force Field Setup information
v1.0  0 0.000000 0.000000 0.000000 0.000000 0.000000 0.000000 NONE 0 0 0 0 1 0 0 0 0 0 0 0 0
