#	Name:			PISM01004
#	Creating user name:	malab
#	Creation time:		Mon Jul 01 21:55:25 2019

#	Modifying user name:	malab
#	Modification time:	Mon Jul 01 21:57:42 2019

@<TRIPOS>MOLECULE
PISM01004
   56    58     1     1     0
SMALL
GAST_HUCK


@<TRIPOS>ATOM
      1 C1         16.2588    8.8534   24.4673 C.3       1 <1>        -0.0652 
      2 C2         16.0344   10.2592   25.0824 C.3       1 <1>        -0.0535 
      3 C3         15.4721   11.2517   24.0287 C.3       1 <1>        -0.0253 
      4 C4         15.2442   12.6585   24.6354 C.3       1 <1>         0.0704 
      5 O5         14.7257   13.5185   23.6069 O.3       1 <1>        -0.3180 
      6 C6         14.4737   14.8196   24.0375 C.ar      1 <1>         0.0912 
      7 C7         15.5058   15.7610   24.0620 C.ar      1 <1>        -0.0313 
      8 C8         15.2588   17.0562   24.5259 C.ar      1 <1>        -0.0440 
      9 C9         13.9801   17.4104   24.9671 C.ar      1 <1>         0.0971 
     10 C10        12.9409   16.4772   24.9080 C.ar      1 <1>        -0.0440 
     11 C11        13.1877   15.1816   24.4455 C.ar      1 <1>        -0.0313 
     12 S12        13.6835   19.0162   25.6614 S.o2      1 <1>         0.0658 
     13 O13        12.3001   19.3821   25.4279 O.2       1 <1>        -0.1515 
     14 O14        14.7342   19.9219   25.2395 O.2       1 <1>        -0.1515 
     15 N15        13.9061   18.6251   27.2455 N.am      1 <1>        -0.2314 
     16 C16        12.7740   18.3071   28.1100 C.3       1 <1>         0.0499 
     17 C17        12.9437   16.8516   28.6113 C.3       1 <1>         0.0529 
     18 N18        14.3125   16.7021   29.1172 N.am      1 <1>        -0.2456 
     19 C19        15.4409   17.0289   28.2423 C.3       1 <1>         0.0529 
     20 C20        15.2612   18.4914   27.7696 C.3       1 <1>         0.0499 
     21 C21        14.5541   16.2691   30.3829 C.2       1 <1>         0.3273 
     22 O22        15.6799   16.1270   30.8328 O.2       1 <1>        -0.3772 
     23 C23        13.7969   15.6441   32.4855 C.3       1 <1>         0.2419 
     24 C24        12.4977   15.3424   33.1917 C.2       1 <1>        -0.0022 
     25 C25        12.2728   16.2245   34.1634 C.2       1 <1>         0.0291 
     26 C26        13.4382   17.0981   34.1049 C.2       1 <1>         0.2494 
     27 O27        14.3353   16.7915   33.1768 O.3       1 <1>        -0.2315 
     28 O28        13.5850   18.0443   34.8592 O.2       1 <1>        -0.3691 
     29 C29        11.1070   16.2987   35.1111 C.3       1 <1>        -0.0323 
     30 O30        13.4777   15.9898   31.1283 O.3       1 <1>        -0.2137 
     31 H1         16.9781    8.9082   23.6352 H         1 <1>         0.0230 
     32 H2         15.3096    8.4440   24.0877 H         1 <1>         0.0230 
     33 H3         16.6571    8.1649   25.2295 H         1 <1>         0.0230 
     34 H4         16.9935   10.6388   25.4727 H         1 <1>         0.0263 
     35 H5         15.3276   10.1752   25.9249 H         1 <1>         0.0263 
     36 H6         14.5128   10.8757   23.6367 H         1 <1>         0.0291 
     37 H7         16.1774   11.3399   23.1860 H         1 <1>         0.0291 
     38 H8         16.1981   13.0569   25.0189 H         1 <1>         0.0614 
     39 H9         14.5239   12.5933   25.4678 H         1 <1>         0.0614 
     40 H10        16.4970   15.4813   23.7207 H         1 <1>         0.0542 
     41 H11        16.0614   17.7854   24.5451 H         1 <1>         0.0608 
     42 H12        11.9423   16.7592   25.2248 H         1 <1>         0.0608 
     43 H13        12.3857   14.4521   24.4025 H         1 <1>         0.0542 
     44 H14        11.8032   18.4165   27.6023 H         1 <1>         0.0498 
     45 H15        12.7869   18.9912   28.9734 H         1 <1>         0.0498 
     46 H16        12.8168   16.1635   27.7610 H         1 <1>         0.0538 
     47 H17        12.1440   16.6327   29.3364 H         1 <1>         0.0538 
     48 H18        15.4124   16.3592   27.3682 H         1 <1>         0.0538 
     49 H19        16.4310   16.9214   28.7151 H         1 <1>         0.0538 
     50 H20        16.0316   18.7436   27.0244 H         1 <1>         0.0498 
     51 H21        15.3811   19.1697   28.6293 H         1 <1>         0.0498 
     52 H22        14.4775   14.7785   32.5633 H         1 <1>         0.1194 
     53 H23        11.8353   14.5173   32.9329 H         1 <1>         0.0704 
     54 H24        10.3125   16.9146   34.6643 H         1 <1>         0.0347 
     55 H25        11.4242   16.7565   36.0601 H         1 <1>         0.0347 
     56 H26        10.7119   15.2923   35.3159 H         1 <1>         0.0347 
@<TRIPOS>BOND
     1    2    1 1    
     2    3    2 1    
     3    4    3 1    
     4    5    4 1    
     5    6    5 1    
     6    7    6 ar   
     7    8    7 ar   
     8    9    8 ar   
     9    9   10 ar   
    10   10   11 ar   
    11   11    6 ar   
    12   12    9 1    
    13   12   13 2    
    14   12   14 2    
    15   15   12 1    
    16   16   15 1    
    17   17   16 1    
    18   18   17 1    
    19   18   19 1    
    20   19   20 1    
    21   20   15 1    
    22   21   18 am   
    23   21   22 2    
    24   30   21 1    
    25   23   24 1    
    26   24   25 2    
    27   26   25 1    
    28   27   26 1    
    29   23   27 1    
    30   26   28 2    
    31   25   29 1    
    32   23   30 1    
    33    1   31 1    
    34    1   32 1    
    35    1   33 1    
    36    2   34 1    
    37    2   35 1    
    38    3   36 1    
    39    3   37 1    
    40    4   38 1    
    41    4   39 1    
    42    7   40 1    
    43    8   41 1    
    44   10   42 1    
    45   11   43 1    
    46   16   44 1    
    47   16   45 1    
    48   17   46 1    
    49   17   47 1    
    50   19   48 1    
    51   19   49 1    
    52   20   50 1    
    53   20   51 1    
    54   23   52 1    
    55   24   53 1    
    56   29   54 1    
    57   29   55 1    
    58   29   56 1    
@<TRIPOS>SUBSTRUCTURE
     1 ****       23 TEMP              0 ****  ****    0 ROOT 
@<TRIPOS>NORMAL
@<TRIPOS>FF_PBC
FORCE_FIELD_SETUP_FEATURE Force Field Setup information
v1.0  0 0.000000 0.000000 0.000000 0.000000 0.000000 0.000000 NONE 0 0 0 0 1 0 0 0 0 0 0 0 0
