#	Name:			PISM00315.1
#	Creating user name:	malab
#	Creation time:		Fri Apr 05 16:54:22 2019

#	Modifying user name:	malab
#	Modification time:	Fri Apr 05 16:56:11 2019

@<TRIPOS>MOLECULE
PISM00315.1
   40    42     1     1     0
SMALL
GAST_HUCK


@<TRIPOS>ATOM
      1 C1        -10.1804   -1.8232    1.6007 C.ar      1 <1>        -0.0574 
      2 C2        -10.6946   -1.1573    2.7138 C.ar      1 <1>         0.0309 
      3 C3        -11.5494   -0.0664    2.5321 C.ar      1 <1>        -0.0574 
      4 C4        -11.8431    0.3798    1.2408 C.ar      1 <1>        -0.0679 
      5 C5        -11.2054   -0.1916    0.1327 C.ar      1 <1>        -0.0520 
      6 C6        -10.4093   -1.3236    0.3154 C.ar      1 <1>        -0.0679 
      7 Cl7       -10.2594   -1.6766    4.3304 Cl        1 <1>        -0.0785 
      8 C8        -11.4115    0.3818   -1.2553 C.2       1 <1>        -0.0349 
      9 C9        -10.6305    1.1516   -2.0375 C.2       1 <1>         0.1383 
     10 C10        -9.2517    1.7888   -1.7863 C.3       1 <1>         0.1644 
     11 C11        -8.8240    2.3039   -0.3611 C.3       1 <1>         0.1028 
     12 O12        -9.3782    4.0957   -4.6099 O.3       1 <1>        -0.3477 
     13 C13        -8.4995    1.1333    0.6175 C.3       1 <1>        -0.0066 
     14 H1         -9.5921   -2.7259    1.7349 H         1 <1>         0.0000 
     15 O15        -9.1525    2.9835   -2.5923 O.3       1 <1>        -0.3046 
     16 C16        -9.3079    2.7930   -4.0021 C.3       1 <1>         0.2503 
     17 H2        -11.9806    0.4320    3.3945 H         1 <1>         0.0000 
     18 C18       -10.6126    2.0862   -4.1687 C.2       1 <1>         0.2234 
     19 N19       -11.1403    1.3725   -3.2232 N.pl3     1 <1>        -0.1141 
     20 N20       -12.3095    0.9454   -3.7900 N.2       1 <1>        -0.1826 
     21 C21       -12.5197    1.3389   -4.9912 C.2       1 <1>         0.0526 
     22 N22       -11.3308    2.1121   -5.1954 N.2       1 <1>        -0.2871 
     23 H3        -12.5724    1.1723    1.1046 H         1 <1>         0.0000 
     24 H4         -9.9648   -1.8135   -0.5431 H         1 <1>         0.0000 
     25 C25        -9.9539    3.2229    0.1916 C.3       1 <1>        -0.3858 
     26 H5        -12.3832    0.0488   -1.6083 H         1 <1>         0.0000 
     27 H6         -8.4897    1.0853   -2.1528 H         1 <1>         0.0000 
     28 C28        -7.5278    3.1800   -0.4569 C.3       1 <1>         0.0000 
     29 H8         -9.5467    4.0382   -5.5443 H         1 <1>         0.0000 
     30 H9         -9.3230    0.9358    1.3038 H         1 <1>         0.0000 
     31 H10        -7.6473    1.3440    1.2791 H         1 <1>         0.0000 
     32 H11        -8.2559    0.2173    0.0638 H         1 <1>         0.0000 
     33 H12        -8.4780    2.1979   -4.4182 H         1 <1>         0.0000 
     34 H13       -13.3591    1.1346   -5.6522 H         1 <1>         0.0000 
     35 H14       -10.9034    2.6862    0.2832 H         1 <1>         0.0000 
     36 H7        -10.1276    4.0695   -0.4898 H         1 <1>         0.0000 
     37 H15        -9.6812    3.6192    1.1821 H         1 <1>         0.0000 
     38 H16        -7.6683    4.0731   -1.0860 H         1 <1>         0.0000 
     39 H17        -6.7029    2.5857   -0.8773 H         1 <1>         0.0000 
     40 H18        -7.2224    3.5382    0.5375 H         1 <1>         0.0000 
@<TRIPOS>BOND
     1    1    2 ar   
     2    3    2 ar   
     3    4    3 ar   
     4    5    4 ar   
     5    5    6 ar   
     6    6    1 ar   
     7    2    7 1    
     8    8    5 1    
     9    9    8 2    
    10   10    9 1    
    11   10   11 1    
    12   16   12 1    
    13   11   13 1    
    14    1   14 1    
    15   15   10 1    
    16   15   16 1    
    17    3   17 1    
    18   16   18 1    
    19   18   19 1    
    20    9   19 1    
    21   19   20 1    
    22   20   21 2    
    23   21   22 1    
    24   18   22 2    
    25    4   23 1    
    26    6   24 1    
    27   11   25 1    
    28    8   26 1    
    29   10   27 1    
    30   11   28 1    
    31   12   29 1    
    32   13   30 1    
    33   13   31 1    
    34   13   32 1    
    35   16   33 1    
    36   21   34 1    
    37   25   35 1    
    38   25   36 1    
    39   25   37 1    
    40   28   38 1    
    41   28   39 1    
    42   28   40 1    
@<TRIPOS>SUBSTRUCTURE
     1 ****        2 TEMP              0 ****  ****    0 ROOT 
@<TRIPOS>NORMAL
@<TRIPOS>FF_PBC
FORCE_FIELD_SETUP_FEATURE Force Field Setup information
v1.0  0 0.000000 0.000000 0.000000 0.000000 0.000000 0.000000 NONE 0 0 0 0 0 0 0 0 0 0 0 0 0
