#	Name:			PISM00919.1
#	Creating user name:	baoopengkun
#	Creation time:		Fri Dec 14 10:31:16 2018

#	Modifying user name:	baoopengkun
#	Modification time:	Fri Dec 14 10:56:24 2018

@<TRIPOS>MOLECULE
PISM00919.1
   37    39     1     1     0
SMALL
GAST_HUCK


@<TRIPOS>ATOM
      1 C1         30.5532   12.5373  -14.2660 C.ar      1 <1>        -0.0145 
      2 C2         31.6955   11.7247  -14.2334 C.ar      1 <1>         0.0720 
      3 C3         31.6928   10.5323  -13.4879 C.ar      1 <1>        -0.0299 
      4 C4         30.5825   10.1467  -12.7251 C.ar      1 <1>        -0.0474 
      5 C5         29.4619   10.9746  -12.7617 C.ar      1 <1>         0.0608 
      6 C6         29.4480   12.1377  -13.5166 C.ar      1 <1>         0.0637 
      7 C7         28.0823   12.7427  -13.3069 C.2       1 <1>         0.2418 
      8 N8         27.3652   11.9622  -12.4750 N.am      1 <1>        -0.1418 
      9 C9         28.1059   10.9004  -12.1046 C.2       1 <1>         0.2355 
     10 O10        27.7108   13.7800  -13.8284 O.2       1 <1>        -0.3668 
     11 O11        27.7523   10.0049  -11.3572 O.2       1 <1>        -0.3726 
     12 C12        26.0176   12.2453  -12.0149 C.3       1 <1>         0.2214 
     13 O13        26.0685   13.3599  -11.1022 O.3       1 <1>        -0.2348 
     14 C14        25.3715   14.3250  -11.6898 C.2       1 <1>         0.2491 
     15 C15        24.7852   13.9791  -12.9802 C.2       1 <1>         0.0288 
     16 C16        25.1651   12.7169  -13.1686 C.2       1 <1>        -0.0059 
     17 C17        23.9431   14.8393  -13.8816 C.3       1 <1>        -0.0323 
     18 O18        25.2275   15.4205  -11.1746 O.2       1 <1>        -0.3691 
     19 N19        32.7908   12.1041  -14.9375 N.pl3     1 <1>        -0.2358 
     20 C20        33.9905   12.0711  -14.4189 C.2       1 <1>         0.2017 
     21 O21        34.2033   11.7100  -13.2735 O.2       1 <1>        -0.3789 
     22 C22        35.1606   12.5095  -15.2702 C.3       1 <1>         0.0401 
     23 C23        36.5182   12.4215  -14.5250 C.3       1 <1>        -0.0475 
     24 H1         30.5216   13.4520  -14.8479 H         1 <1>         0.0597 
     25 H2         32.5621    9.8832  -13.5025 H         1 <1>         0.0574 
     26 H3         30.5858    9.2401  -12.1288 H         1 <1>         0.0651 
     27 H4         25.5555   11.3754  -11.5191 H         1 <1>         0.1152 
     28 H5         24.9083   12.1103  -14.0360 H         1 <1>         0.0702 
     29 H6         24.5287   15.1177  -14.7704 H         1 <1>         0.0347 
     30 H7         23.6338   15.7548  -13.3553 H         1 <1>         0.0347 
     31 H8         23.0450   14.2881  -14.1977 H         1 <1>         0.0347 
     32 H9         32.6630   12.4513  -15.8998 H         1 <1>         0.2126 
     33 H10        34.9925   13.5510  -15.5876 H         1 <1>         0.0508 
     34 H11        35.2000   11.8701  -16.1663 H         1 <1>         0.0508 
     35 H12        36.7142   11.3841  -14.2111 H         1 <1>         0.0255 
     36 H13        36.5050   13.0653  -13.6314 H         1 <1>         0.0255 
     37 H14        37.3378   12.7506  -15.1832 H         1 <1>         0.0255 
@<TRIPOS>BOND
     1    2    1 ar   
     2    2    3 ar   
     3    3    4 ar   
     4    4    5 ar   
     5    6    5 ar   
     6    1    6 ar   
     7    6    7 1    
     8    7    8 am   
     9    9    8 am   
    10    5    9 1    
    11    7   10 2    
    12    9   11 2    
    13    8   12 1    
    14   12   13 1    
    15   13   14 1    
    16   15   14 1    
    17   16   15 2    
    18   12   16 1    
    19   15   17 1    
    20   14   18 2    
    21    2   19 1    
    22   19   20 1    
    23   20   21 2    
    24   20   22 1    
    25   22   23 1    
    26    1   24 1    
    27    3   25 1    
    28    4   26 1    
    29   12   27 1    
    30   16   28 1    
    31   17   29 1    
    32   17   30 1    
    33   17   31 1    
    34   19   32 1    
    35   22   33 1    
    36   22   34 1    
    37   23   35 1    
    38   23   36 1    
    39   23   37 1    
@<TRIPOS>SUBSTRUCTURE
     1 ****        2 TEMP              0 ****  ****    0 ROOT 
@<TRIPOS>NORMAL
@<TRIPOS>FF_PBC
FORCE_FIELD_SETUP_FEATURE Force Field Setup information
v1.0  0 0.000000 0.000000 0.000000 0.000000 0.000000 0.000000 NONE 0 0 0 0 1 0 0 0 0 0 0 0 0
