#	Name:			PISM01179
#	Creating user name:	baoopengkun
#	Creation time:		Tue Dec 18 17:16:43 2018

#	Modifying user name:	baoopengkun
#	Modification time:	Tue Dec 18 17:19:05 2018

@<TRIPOS>MOLECULE
PISM01179
   74    78     1     1     0
SMALL
GAST_HUCK


@<TRIPOS>ATOM
      1 C1          5.2775   26.2926  -22.5150 C.3       1 <1>         0.0578 
      2 O2          6.1701   27.4164  -22.5816 O.3       1 <1>        -0.3274 
      3 C3          6.0801   28.4914  -21.6849 C.ar      1 <1>         0.0771 
      4 C4          5.1099   28.5530  -20.6777 C.ar      1 <1>        -0.0466 
      5 C5          5.1039   29.6206  -19.7748 C.ar      1 <1>        -0.0749 
      6 C6          6.0806   30.6226  -19.8417 C.ar      1 <1>        -0.0484 
      7 C7          6.9677   30.6320  -20.9272 C.ar      1 <1>        -0.0491 
      8 C8          6.9913   29.5425  -21.8050 C.ar      1 <1>        -0.0382 
      9 C9          6.2417   31.7201  -18.7773 C.3       1 <1>        -0.0116 
     10 C10         6.4970   33.0637  -19.5218 C.3       1 <1>        -0.0259 
     11 C11         7.8989   32.9704  -20.1790 C.3       1 <1>        -0.0396 
     12 C12         7.9159   31.8107  -21.2190 C.3       1 <1>        -0.0236 
     13 C13         5.1248   31.8805  -17.7084 C.3       1 <1>        -0.0421 
     14 C14         5.5370   32.8830  -16.5788 C.3       1 <1>        -0.0442 
     15 C15         6.4452   34.0594  -17.0747 C.3       1 <1>        -0.0133 
     16 C16         6.1953   34.2808  -18.5881 C.3       1 <1>        -0.0295 
     17 C17         6.0301   35.4624  -16.5334 C.3       1 <1>         0.0133 
     18 C18         6.6167   36.4661  -17.5782 C.3       1 <1>        -0.0368 
     19 C19         6.8259   35.6601  -18.8970 C.3       1 <1>        -0.0478 
     20 N20         6.4715   35.6619  -15.1289 N.3       1 <1>        -0.3127 
     21 C21         5.4523   35.7453  -14.0590 C.3       1 <1>        -0.0038 
     22 C22         4.7409   37.1256  -14.0481 C.3       1 <1>        -0.0404 
     23 C23         3.6891   37.2085  -12.9081 C.3       1 <1>        -0.0518 
     24 C24         2.9830   38.5918  -12.8878 C.3       1 <1>        -0.0509 
     25 C25         1.9402   38.6748  -11.7398 C.3       1 <1>        -0.0289 
     26 C26         1.2351   40.0541  -11.7077 C.3       1 <1>         0.0554 
     27 N27         0.2797   40.0615  -10.6079 N.am      1 <1>        -0.1849 
     28 C28        -1.0007   39.6701  -10.6928 C.2       1 <1>         0.2382 
     29 C29        -1.6102   39.7931   -9.3612 C.2       1 <1>         0.0355 
     30 C30        -0.6572   40.2408   -8.5371 C.2       1 <1>         0.0355 
     31 C31         0.5615   40.4041   -9.3418 C.2       1 <1>         0.2382 
     32 O32         1.6334   40.7853   -8.9043 O.2       1 <1>        -0.3614 
     33 O33        -1.5843   39.2735  -11.6866 O.2       1 <1>        -0.3614 
     34 C34         7.9431   33.8207  -16.6892 C.3       1 <1>        -0.0579 
     35 H1          4.2361   26.6040  -22.6883 H         1 <1>         0.0575 
     36 H2          5.3647   25.7762  -21.5468 H         1 <1>         0.0575 
     37 H3          5.5646   25.5892  -23.3103 H         1 <1>         0.0575 
     38 H4          4.3514   27.7866  -20.5743 H         1 <1>         0.0468 
     39 H5          4.3223   29.6477  -19.0263 H         1 <1>         0.0511 
     40 H6          7.7252   29.5054  -22.6031 H         1 <1>         0.0462 
     41 H7          7.1245   31.3769  -18.2212 H         1 <1>         0.0429 
     42 H8          5.7867   33.1426  -20.3661 H         1 <1>         0.0326 
     43 H9          8.6700   32.8007  -19.4133 H         1 <1>         0.0290 
     44 H10         8.1565   33.9020  -20.7076 H         1 <1>         0.0290 
     45 H11         8.9454   31.4405  -21.3528 H         1 <1>         0.0410 
     46 H12         7.5709   32.2067  -22.1887 H         1 <1>         0.0410 
     47 H13         4.9008   30.9203  -17.2162 H         1 <1>         0.0286 
     48 H14         4.2106   32.2170  -18.2245 H         1 <1>         0.0286 
     49 H15         6.0681   32.3395  -15.7802 H         1 <1>         0.0273 
     50 H16         4.6053   33.2595  -16.1284 H         1 <1>         0.0273 
     51 H17         5.1045   34.4489  -18.6790 H         1 <1>         0.0311 
     52 H18         4.9312   35.5514  -16.5908 H         1 <1>         0.0466 
     53 H19         7.5834   36.8849  -17.2553 H         1 <1>         0.0280 
     54 H20         5.9270   37.3139  -17.7275 H         1 <1>         0.0280 
     55 H21         7.9022   35.5635  -19.1032 H         1 <1>         0.0269 
     56 H22         6.3556   36.1399  -19.7717 H         1 <1>         0.0269 
     57 H23         7.2066   36.4494  -15.0291 H         1 <1>         0.1222 
     58 H24         5.9607   35.5876  -13.0936 H         1 <1>         0.0424 
     59 H25         4.7162   34.9351  -14.1818 H         1 <1>         0.0424 
     60 H26         4.2436   37.2944  -15.0162 H         1 <1>         0.0277 
     61 H27         5.4942   37.9179  -13.9082 H         1 <1>         0.0277 
     62 H28         4.1885   37.0409  -11.9395 H         1 <1>         0.0266 
     63 H29         2.9354   36.4163  -13.0494 H         1 <1>         0.0266 
     64 H30         2.4772   38.7575  -13.8533 H         1 <1>         0.0266 
     65 H31         3.7377   39.3839  -12.7519 H         1 <1>         0.0266 
     66 H32         2.4399   38.5111  -10.7708 H         1 <1>         0.0288 
     67 H33         1.1773   37.8900  -11.8718 H         1 <1>         0.0288 
     68 H34         0.7153   40.2364  -12.6626 H         1 <1>         0.0567 
     69 H35         1.9779   40.8564  -11.5671 H         1 <1>         0.0567 
     70 H36        -2.6437   39.5588   -9.1113 H         1 <1>         0.0802 
     71 H37        -0.7482   40.4491   -7.4723 H         1 <1>         0.0802 
     72 H38         8.3371   32.8687  -17.0559 H         1 <1>         0.0236 
     73 H39         8.0405   33.7946  -15.5934 H         1 <1>         0.0236 
     74 H40         8.6080   34.6149  -17.0524 H         1 <1>         0.0236 
@<TRIPOS>BOND
     1    2    1 1    
     2    2    3 1    
     3    3    4 ar   
     4    4    5 ar   
     5    5    6 ar   
     6    6    7 ar   
     7    7    8 ar   
     8    3    8 ar   
     9    6    9 1    
    10    9   10 1    
    11   10   11 1    
    12   11   12 1    
    13    7   12 1    
    14    9   13 1    
    15   13   14 1    
    16   14   15 1    
    17   15   16 1    
    18   10   16 1    
    19   15   17 1    
    20   17   18 1    
    21   18   19 1    
    22   16   19 1    
    23   17   20 1    
    24   20   21 1    
    25   21   22 1    
    26   22   23 1    
    27   23   24 1    
    28   24   25 1    
    29   25   26 1    
    30   26   27 1    
    31   27   28 am   
    32   28   29 1    
    33   29   30 2    
    34   30   31 1    
    35   31   32 2    
    36   27   31 am   
    37   28   33 2    
    38   15   34 1    
    39    1   35 1    
    40    1   36 1    
    41    1   37 1    
    42    4   38 1    
    43    5   39 1    
    44    8   40 1    
    45    9   41 1    
    46   10   42 1    
    47   11   43 1    
    48   11   44 1    
    49   12   45 1    
    50   12   46 1    
    51   13   47 1    
    52   13   48 1    
    53   14   49 1    
    54   14   50 1    
    55   16   51 1    
    56   17   52 1    
    57   18   53 1    
    58   18   54 1    
    59   19   55 1    
    60   19   56 1    
    61   20   57 1    
    62   21   58 1    
    63   21   59 1    
    64   22   60 1    
    65   22   61 1    
    66   23   62 1    
    67   23   63 1    
    68   24   64 1    
    69   24   65 1    
    70   25   66 1    
    71   25   67 1    
    72   26   68 1    
    73   26   69 1    
    74   29   70 1    
    75   30   71 1    
    76   34   72 1    
    77   34   73 1    
    78   34   74 1    
@<TRIPOS>SUBSTRUCTURE
     1 ****        2 TEMP              0 ****  ****    0 ROOT 
@<TRIPOS>NORMAL
@<TRIPOS>FF_PBC
FORCE_FIELD_SETUP_FEATURE Force Field Setup information
v1.0  0 0.000000 0.000000 0.000000 0.000000 0.000000 0.000000 NONE 0 0 0 0 1 0 0 0 0 0 0 0 0
