#	Name:			PISM00673
#	Creating user name:	baoopengkun
#	Creation time:		Mon Dec 10 11:35:36 2018

#	Modifying user name:	baoopengkun
#	Modification time:	Mon Dec 10 11:36:02 2018

@<TRIPOS>MOLECULE
PISM00673
   36    39     1     2     0
SMALL
GAST_HUCK


@<TRIPOS>ATOM
      1 C1         -8.4642   36.3878  -14.4076 C.ar      1 PHENYL     -0.0368 
      2 C2         -9.5062   36.5240  -15.3293 C.ar      1 PHENYL     -0.0181 
      3 C3         -9.5891   35.6578  -16.4230 C.ar      1 PHENYL      0.0714 
      4 C4         -8.6255   34.6610  -16.5995 C.ar      1 PHENYL     -0.0181 
      5 C5         -7.5819   34.5267  -15.6796 C.ar      1 PHENYL     -0.0368 
      6 C6         -7.5070   35.3835  -14.5769 C.ar      1 PHENYL     -0.0156 
      7 C7         -6.3922   35.2206  -13.5420 C.3       1 PHENYL      0.1240 
      8 C8         -4.9398   35.5647  -13.9330 C.3       1 PHENYL      0.0865 
      9 N9         -4.4984   34.5890  -14.9158 N.pl3     1 PHENYL     -0.1835 
     10 C10        -4.1291   34.7953  -16.1431 C.2       1 PHENYL      0.1269 
     11 N11        -3.8355   33.7057  -16.6917 N.2       1 PHENYL     -0.2870 
     12 C12        -4.0091   32.6150  -15.7722 C.2       1 PHENYL      0.0618 
     13 N13        -4.4099   33.2423  -14.7296 N.2       1 PHENYL     -0.1909 
     14 O14        -6.7489   35.3641  -12.1935 O.3       1 PHENYL     -0.3910 
     15 C15        -6.5822   34.0061  -12.5328 C.3       1 PHENYL      0.0914 
     16 C          -7.7950   33.1643  -12.9345 C.ar      1 PHENYL     -0.0211 
     17 C          -7.6140   31.9932  -13.6767 C.ar      1 PHENYL     -0.0586 
     18 C          -8.7221   31.2505  -14.0943 C.ar      1 PHENYL     -0.0685 
     19 C         -10.0123   31.6720  -13.7599 C.ar      1 PHENYL     -0.0687 
     20 C         -10.1932   32.8286  -12.9958 C.ar      1 PHENYL     -0.0685 
     21 C          -9.0846   33.5690  -12.5759 C.ar      1 PHENYL     -0.0586 
     22 Cl22      -10.9004   35.8212  -17.5729 Cl        1 PHENYL     -0.0420 
     23 H1         -8.3982   37.0583  -13.5561 H         1 PHENYL      0.0848 
     24 H2        -10.2523   37.3008  -15.1968 H         1 PHENYL      0.0703 
     25 H3         -8.6895   33.9911  -17.4509 H         1 PHENYL      0.0703 
     26 H4         -6.8354   33.7526  -15.8221 H         1 PHENYL      0.0848 
     27 H5         -4.2781   35.5161  -13.0550 H         1 PHENYL      0.0572 
     28 H6         -4.9196   36.5896  -14.3328 H         1 PHENYL      0.0572 
     29 H7         -4.0772   35.7605  -16.6456 H         1 PHENYL      0.1361 
     30 H8         -3.8458   31.5484  -15.9187 H         1 PHENYL      0.0863 
     31 H9         -5.6349   33.5150  -12.2632 H         1 PHENYL      0.0677 
     32 H10        -6.6127   31.6619  -13.9334 H         1 PHENYL      0.0557 
     33 H11        -8.5805   30.3465  -14.6786 H         1 PHENYL      0.0599 
     34 H12       -10.8736   31.1007  -14.0923 H         1 PHENYL      0.0559 
     35 H13       -11.1944   33.1522  -12.7287 H         1 PHENYL      0.0599 
     36 H14        -9.2253   34.4614  -11.9745 H         1 PHENYL      0.0557 
@<TRIPOS>BOND
     1    1    2 ar   
     2    2    3 ar   
     3    4    3 ar   
     4    5    4 ar   
     5    6    5 ar   
     6    6    1 ar   
     7    7    6 1    
     8    7    8 1    
     9    8    9 1    
    10    9   10 1    
    11   10   11 2    
    12   12   11 1    
    13   13   12 2    
    14    9   13 1    
    15    7   14 1    
    16   15   14 1    
    17   15    7 1    
    18   16   17 ar   
    19   16   21 ar   
    20   21   20 ar   
    21   20   19 ar   
    22   18   19 ar   
    23   17   18 ar   
    24   16   15 1    
    25    3   22 1    
    26    1   23 1    
    27    2   24 1    
    28    4   25 1    
    29    5   26 1    
    30    8   27 1    
    31    8   28 1    
    32   10   29 1    
    33   12   30 1    
    34   15   31 1    
    35   17   32 1    
    36   18   33 1    
    37   19   34 1    
    38   20   35 1    
    39   21   36 1    
@<TRIPOS>SUBSTRUCTURE
     1 PHENYL     16 PERM              0 ****  ****    0 ROOT 
@<TRIPOS>NORMAL
@<TRIPOS>FF_PBC
FORCE_FIELD_SETUP_FEATURE Force Field Setup information
v1.0  0 0.000000 0.000000 0.000000 0.000000 0.000000 0.000000 NONE 0 0 0 0 1 0 0 0 0 0 0 0 0
@<TRIPOS>RENDERING_ATTRS
ANTIALIASED_LINES 
*
