#	Name:			PISM01008
#	Creating user name:	malab
#	Creation time:		Mon Jul 01 22:05:46 2019

#	Modifying user name:	malab
#	Modification time:	Mon Jul 01 22:07:11 2019

@<TRIPOS>MOLECULE
PISM01008
   23    24     1     1     0
SMALL
GAST_HUCK


@<TRIPOS>ATOM
      1 C1         12.2528   18.1723   28.0033 C.ar      1 <1>        -0.0228 
      2 C2         11.9546   19.4443   28.4998 C.ar      1 <1>         0.0453 
      3 C3         10.6432   19.9249   28.4440 C.ar      1 <1>         0.0422 
      4 C4          9.6407   19.1375   27.8719 C.ar      1 <1>        -0.0566 
      5 C5          9.9468   17.8744   27.3567 C.ar      1 <1>        -0.0365 
      6 C6         11.2506   17.3704   27.4458 C.ar      1 <1>         0.0705 
      7 Cl7        13.2303   20.4270   29.1909 Cl        1 <1>        -0.0729 
      8 Cl8        10.2483   21.5073   29.0848 Cl        1 <1>        -0.0804 
      9 N9         11.5618   16.1294   26.9956 N.pl3     1 <1>        -0.2312 
     10 C10        10.8054   15.0944   27.2368 C.2       1 <1>         0.2233 
     11 N11         9.7339   15.1332   27.9067 N.2       1 <1>        -0.2983 
     12 S12        11.1829   13.4494   26.6595 S.3       1 <1>         0.0962 
     13 C13         9.6733   12.9057   27.4705 C.2       1 <1>         0.0796 
     14 C14         9.0175   13.8952   28.0836 C.2       1 <1>         0.0820 
     15 C15         7.7265   13.7274   28.8381 C.3       1 <1>         0.3570 
     16 F16         7.9670   12.9854   29.9519 F         1 <1>        -0.2455 
     17 F17         7.2043   14.9322   29.1919 F         1 <1>        -0.2455 
     18 F18         6.8452   13.0638   28.0423 F         1 <1>        -0.2455 
     19 H1         13.2724   17.8061   28.0576 H         1 <1>         0.0545 
     20 H2          8.6225   19.5107   27.8266 H         1 <1>         0.0595 
     21 H3          9.1628   17.2954   26.8797 H         1 <1>         0.0542 
     22 H4         12.4360   15.9938   26.4670 H         1 <1>         0.2239 
     23 H5          9.3261   11.8734   27.4639 H         1 <1>         0.1471 
@<TRIPOS>BOND
     1    2    1 ar   
     2    2    3 ar   
     3    3    4 ar   
     4    4    5 ar   
     5    5    6 ar   
     6    1    6 ar   
     7    2    7 1    
     8    3    8 1    
     9    6    9 1    
    10    9   10 1    
    11   10   11 2    
    12   10   12 1    
    13   12   13 1    
    14   13   14 2    
    15   11   14 1    
    16   14   15 1    
    17   15   16 1    
    18   15   17 1    
    19   15   18 1    
    20    1   19 1    
    21    4   20 1    
    22    5   21 1    
    23    9   22 1    
    24   13   23 1    
@<TRIPOS>SUBSTRUCTURE
     1 ****        2 TEMP              0 ****  ****    0 ROOT 
@<TRIPOS>NORMAL
@<TRIPOS>FF_PBC
FORCE_FIELD_SETUP_FEATURE Force Field Setup information
v1.0  0 0.000000 0.000000 0.000000 0.000000 0.000000 0.000000 NONE 0 0 0 0 1 0 0 0 0 0 0 0 0
