#	Name:			PISM00304
#	Creating user name:	malab
#	Creation time:		Fri Apr 05 16:38:33 2019

#	Modifying user name:	malab
#	Modification time:	Fri Apr 05 16:39:15 2019

@<TRIPOS>MOLECULE
PISM00304
   50    52     1     1     0
SMALL
GAST_HUCK


@<TRIPOS>ATOM
      1 C1         -6.8543   14.8708   52.8864 C.3       1 <1>        -0.0077 
      2 C2         -5.3884   15.0778   52.4426 C.3       1 <1>         0.0497 
      3 C3         -4.9498   16.4251   52.9603 C.2       1 <1>         0.1999 
      4 O4         -3.8479   16.5009   53.4816 O.2       1 <1>        -0.3812 
      5 N5         -5.7610   17.4503   52.8419 N.pl3     1 <1>        -0.2378 
      6 C6         -5.3622   18.7396   53.4282 C.3       1 <1>         0.0446 
      7 C7         -5.4770   18.6553   54.9753 C.3       1 <1>        -0.0331 
      8 C8         -5.0894   19.9948   55.6549 C.3       1 <1>        -0.0632 
      9 C9         -6.9702   17.2901   52.2341 C.ar      1 <1>         0.0505 
     10 C10        -7.6385   16.0661   52.3488 C.ar      1 <1>        -0.0322 
     11 C11        -8.9771   15.9427   51.9652 C.ar      1 <1>        -0.0529 
     12 C12        -9.6386   17.0144   51.3565 C.ar      1 <1>         0.0440 
     13 C13        -8.9202   18.1859   51.0910 C.ar      1 <1>        -0.0617 
     14 C14        -7.5820   18.3001   51.4801 C.ar      1 <1>        -0.0607 
     15 N15       -11.0155   16.8998   51.0160 N.am      1 <1>        -0.1982 
     16 S16       -11.8023   17.9869   50.0531 S.o2      1 <1>         0.0678 
     17 O17       -12.0985   19.1647   50.8457 O.2       1 <1>        -0.1482 
     18 O18       -11.0754   18.1440   48.8075 O.2       1 <1>        -0.1482 
     19 C19       -13.3642   17.1427   49.7053 C.3       1 <1>         0.1230 
     20 C20       -13.2765   15.7327   49.0958 C.ar      1 <1>        -0.0199 
     21 C21       -14.4618   14.9984   48.9737 C.ar      1 <1>        -0.0587 
     22 C22       -14.4531   13.7046   48.4450 C.ar      1 <1>        -0.0685 
     23 C23       -13.2539   13.1211   48.0255 C.ar      1 <1>        -0.0687 
     24 C24       -12.0679   13.8548   48.1345 C.ar      1 <1>        -0.0685 
     25 C25       -12.0791   15.1496   48.6622 C.ar      1 <1>        -0.0587 
     26 H1         -6.9351   14.8514   53.9849 H         1 <1>         0.0425 
     27 H2         -7.2417   13.9231   52.4788 H         1 <1>         0.0425 
     28 H3         -5.3097   15.0677   51.3436 H         1 <1>         0.0529 
     29 H4         -4.7582   14.2693   52.8483 H         1 <1>         0.0529 
     30 H5         -5.9952   19.5845   53.1241 H         1 <1>         0.0550 
     31 H6         -4.3291   18.9860   53.1326 H         1 <1>         0.0550 
     32 H7         -4.8220   17.8613   55.3675 H         1 <1>         0.0284 
     33 H8         -6.5166   18.3990   55.2399 H         1 <1>         0.0284 
     34 H9         -4.0508   20.2628   55.4059 H         1 <1>         0.0230 
     35 H10        -5.1752   19.9023   56.7492 H         1 <1>         0.0230 
     36 H11        -5.7545   20.8062   55.3205 H         1 <1>         0.0230 
     37 H12        -9.5019   15.0090   52.1379 H         1 <1>         0.0392 
     38 H13        -9.3864   19.0220   50.5829 H         1 <1>         0.0398 
     39 H14        -7.0302   19.1808   51.1714 H         1 <1>         0.0470 
     40 H15       -11.5425   16.1331   51.3863 H         1 <1>         0.2114 
     41 H16       -13.9082   17.0702   50.6598 H         1 <1>         0.0687 
     42 H17       -13.9425   17.7827   49.0221 H         1 <1>         0.0687 
     43 H18       -15.4034   15.4347   49.2926 H         1 <1>         0.0557 
     44 H19       -15.3835   13.1519   48.3606 H         1 <1>         0.0599 
     45 C45       -13.2619   11.6968   47.4570 C.3       1 <1>         0.0559 
     46 H21       -11.1273   13.4223   47.8083 H         1 <1>         0.0599 
     47 H22       -11.1395   15.6829   48.7249 H         1 <1>         0.0557 
     48 H20       -13.7965   11.0273   48.1478 H         1 <1>         0.0000 
     49 H23       -12.2432   11.3070   47.3120 H         1 <1>         0.0000 
     50 H24       -13.7813   11.7014   46.4871 H         1 <1>         0.0000 
@<TRIPOS>BOND
     1    2    1 1    
     2    2    3 1    
     3    3    4 2    
     4    3    5 1    
     5    5    6 1    
     6    6    7 1    
     7    7    8 1    
     8    5    9 1    
     9    9   10 ar   
    10    1   10 1    
    11   10   11 ar   
    12   11   12 ar   
    13   12   13 ar   
    14   13   14 ar   
    15    9   14 ar   
    16   12   15 1    
    17   15   16 1    
    18   16   17 2    
    19   16   18 2    
    20   16   19 1    
    21   19   20 1    
    22   20   21 ar   
    23   21   22 ar   
    24   22   23 ar   
    25   23   24 ar   
    26   24   25 ar   
    27   20   25 ar   
    28    1   26 1    
    29    1   27 1    
    30    2   28 1    
    31    2   29 1    
    32    6   30 1    
    33    6   31 1    
    34    7   32 1    
    35    7   33 1    
    36    8   34 1    
    37    8   35 1    
    38    8   36 1    
    39   11   37 1    
    40   13   38 1    
    41   14   39 1    
    42   15   40 1    
    43   19   41 1    
    44   19   42 1    
    45   21   43 1    
    46   22   44 1    
    47   23   45 1    
    48   24   46 1    
    49   25   47 1    
    50   45   48 1    
    51   45   49 1    
    52   45   50 1    
@<TRIPOS>SUBSTRUCTURE
     1 ****        2 TEMP              0 ****  ****    0 ROOT 
@<TRIPOS>NORMAL
@<TRIPOS>FF_PBC
FORCE_FIELD_SETUP_FEATURE Force Field Setup information
v1.0  0 0.000000 0.000000 0.000000 0.000000 0.000000 0.000000 NONE 0 0 0 0 0 0 0 0 0 0 0 0 0
