#	Name:			PISM00852
#	Creating user name:	baoopengkun
#	Creation time:		Sat Jan 12 21:11:02 2019

#	Modifying user name:	baoopengkun
#	Modification time:	Sat Jan 12 21:12:33 2019

@<TRIPOS>MOLECULE
PISM00852
   24    25     1     1     0
SMALL
GAST_HUCK


@<TRIPOS>ATOM
      1 Cl1        -6.3152   -5.0111   -1.8638 Cl        1 <1>        -0.0728 
      2 C2         -4.7304   -5.7532   -1.9523 C.ar      1 <1>         0.0457 
      3 C3         -4.5305   -6.9107   -2.7120 C.ar      1 <1>         0.0424 
      4 Cl4        -5.8633   -7.6345   -3.5898 Cl        1 <1>        -0.0803 
      5 C5         -3.2626   -7.4958   -2.7726 C.ar      1 <1>        -0.0562 
      6 C6         -2.1942   -6.9235   -2.0763 C.ar      1 <1>        -0.0319 
      7 C7         -2.3921   -5.7619   -1.3255 C.ar      1 <1>         0.0988 
      8 C8         -3.6610   -5.1810   -1.2576 C.ar      1 <1>        -0.0183 
      9 O9         -1.3198   -5.1858   -0.6472 O.3       1 <1>        -0.2706 
     10 C10        -0.6851   -4.1510   -1.4090 C.3       1 <1>         0.2358 
     11 O11        -0.2568   -4.6702   -2.6855 O.3       1 <1>        -0.2313 
     12 C12         1.0669   -4.5823   -2.6720 C.2       1 <1>         0.2494 
     13 O13         1.7468   -4.9553   -3.6125 O.2       1 <1>        -0.3691 
     14 C14         1.6462   -4.0076   -1.4633 C.2       1 <1>         0.0292 
     15 C15         0.5849   -3.7418   -0.7039 C.2       1 <1>        -0.0019 
     16 C16         3.0979   -3.7660   -1.1538 C.3       1 <1>        -0.0323 
     17 H1         -3.1075   -8.3938   -3.3615 H         1 <1>         0.0596 
     18 H2         -1.2081   -7.3739   -2.1167 H         1 <1>         0.0545 
     19 H3         -3.8152   -4.2863   -0.6654 H         1 <1>         0.0548 
     20 H4         -1.3499   -3.2834   -1.5557 H         1 <1>         0.1199 
     21 H5          0.6254   -3.2953    0.2884 H         1 <1>         0.0705 
     22 H6          3.4192   -4.4305   -0.3379 H         1 <1>         0.0347 
     23 H7          3.2447   -2.7187   -0.8499 H         1 <1>         0.0347 
     24 H8          3.7143   -3.9680   -2.0425 H         1 <1>         0.0347 
@<TRIPOS>BOND
     1    2    1 1    
     2    2    3 ar   
     3    3    4 1    
     4    3    5 ar   
     5    5    6 ar   
     6    6    7 ar   
     7    7    8 ar   
     8    2    8 ar   
     9    7    9 1    
    10    9   10 1    
    11   10   11 1    
    12   11   12 1    
    13   12   13 2    
    14   12   14 1    
    15   14   15 2    
    16   10   15 1    
    17   14   16 1    
    18    5   17 1    
    19    6   18 1    
    20    8   19 1    
    21   10   20 1    
    22   15   21 1    
    23   16   22 1    
    24   16   23 1    
    25   16   24 1    
@<TRIPOS>SUBSTRUCTURE
     1 ****        2 TEMP              0 ****  ****    0 ROOT 
@<TRIPOS>NORMAL
@<TRIPOS>FF_PBC
FORCE_FIELD_SETUP_FEATURE Force Field Setup information
v1.0  0 0.000000 0.000000 0.000000 0.000000 0.000000 0.000000 NONE 0 0 0 0 1 0 0 0 0 0 0 0 0
