#	Name:			PISM00876.1
#	Creating user name:	baoopengkun
#	Creation time:		Thu Dec 13 23:15:37 2018

#	Modifying user name:	baoopengkun
#	Modification time:	Fri Dec 14 00:04:23 2018

@<TRIPOS>MOLECULE
PISM00876.1
   25    26     1     1     0
SMALL
GAST_HUCK


@<TRIPOS>ATOM
      1 H2          4.0510    0.0471   -1.2937 H         1 <1>         0.0578 
      2 C2          4.6416   -1.3721    0.2208 C.ar      1 <1>        -0.0325 
      3 C3          5.6748   -2.1771    0.7103 C.ar      1 <1>         0.0869 
      4 C4          6.9140   -2.1935    0.0632 C.ar      1 <1>        -0.0253 
      5 C5          7.1174   -1.4136   -1.0790 C.ar      1 <1>         0.0531 
      6 C6          6.0809   -0.6158   -1.5738 C.ar      1 <1>         0.1189 
      7 C7          4.8471   -0.5872   -0.9177 C.ar      1 <1>        -0.0178 
      8 Br8         8.7589   -1.4401   -1.9383 Br        1 <1>        -0.0550 
      9 O9          6.2800    0.1516   -2.7202 O.3       1 <1>        -0.2616 
     10 C10         5.7270   -0.4077   -3.9208 C.3       1 <1>         0.2387 
     11 O11         6.1154    0.4492   -5.0123 O.3       1 <1>        -0.2308 
     12 C12         6.9262   -0.2855   -5.7639 C.2       1 <1>         0.2495 
     13 C13         7.1136   -1.6632   -5.3234 C.2       1 <1>         0.0292 
     14 C14         6.3690   -1.7417   -4.2229 C.2       1 <1>        -0.0014 
     15 C15         7.9386   -2.7452   -5.9641 C.3       1 <1>        -0.0323 
     16 O16         7.4657    0.1639   -6.7602 O.2       1 <1>        -0.3691 
     17 H1          3.6799   -1.3560    0.7253 H         1 <1>         0.0714 
     18 C18         5.4624   -2.9896    1.8811 C.1       1 <1>         0.0898 
     19 H3          7.7188   -2.8124    0.4472 H         1 <1>         0.0722 
     20 H4          4.6280   -0.4807   -3.8787 H         1 <1>         0.1205 
     21 H5          6.2497   -2.6418   -3.6210 H         1 <1>         0.0706 
     22 H6          7.3451   -3.6671   -6.0560 H         1 <1>         0.0347 
     23 H7          8.8237   -2.9458   -5.3421 H         1 <1>         0.0347 
     24 H8          8.2684   -2.4315   -6.9659 H         1 <1>         0.0347 
     25 N25         5.2917   -3.6427    2.8213 N.1       1 <1>        -0.3371 
@<TRIPOS>BOND
     1    7    1 1    
     2    3    2 ar   
     3    4    3 ar   
     4    5    4 ar   
     5    6    5 ar   
     6    6    7 ar   
     7    2    7 ar   
     8    5    8 1    
     9    6    9 1    
    10    9   10 1    
    11   10   11 1    
    12   11   12 1    
    13   12   13 1    
    14   13   14 2    
    15   10   14 1    
    16   13   15 1    
    17   12   16 2    
    18    2   17 1    
    19    3   18 1    
    20    4   19 1    
    21   10   20 1    
    22   14   21 1    
    23   15   22 1    
    24   15   23 1    
    25   15   24 1    
    26   18   25 3    
@<TRIPOS>SUBSTRUCTURE
     1 ****        2 TEMP              0 ****  ****    0 ROOT 
@<TRIPOS>NORMAL
@<TRIPOS>FF_PBC
FORCE_FIELD_SETUP_FEATURE Force Field Setup information
v1.0  0 0.000000 0.000000 0.000000 0.000000 0.000000 0.000000 NONE 0 0 0 0 1 0 0 0 0 0 0 0 0
