#	Name:			PISM00759
#	Creating user name:	baoopengkun
#	Creation time:		Sun Dec 02 11:38:55 2018

#	Modifying user name:	baoopengkun
#	Modification time:	Sun Dec 02 11:43:44 2018

@<TRIPOS>MOLECULE
PISM00759
   30    31     1     2     0
SMALL
GAST_HUCK


@<TRIPOS>ATOM
      1 C1          3.1170    5.0600   -5.7181 C.2       1 <1>         0.1054 
      2 C2          3.9232    5.8321   -6.7279 C.3       1 <1>         0.0158 
      3 C3          3.7255    5.2938   -8.1669 C.3       1 <1>        -0.0375 
      4 C4          1.6153    4.0245   -7.5601 C.3       1 <1>        -0.0269 
      5 C5          1.9881    4.1835   -6.1031 C.2       1 <1>         0.0181 
      6 O6          3.4166    5.1754   -4.5406 O.2       1 <1>        -0.4001 
      7 C7          1.2914    3.5256   -5.1651 C.2       1 <1>         0.0764 
      8 O8          0.2724    2.7321   -5.5308 O.3       1 <1>        -0.2718 
      9 C9         -0.3933    2.1024   -4.4238 C.3       1 <1>         0.2384 
     10 O10         0.5309    1.2737   -3.6889 O.3       1 <1>        -0.2305 
     11 C11         0.0922    0.0315   -3.8501 C.2       1 <1>         0.2495 
     12 C12        -1.1228   -0.1070   -4.6455 C.2       1 <1>         0.0293 
     13 C13        -1.4166    1.1464   -4.9852 C.2       1 <1>        -0.0010 
     14 C14        -1.8685   -1.3642   -5.0008 C.3       1 <1>        -0.0323 
     15 O15         0.6677   -0.9235   -3.3580 O.2       1 <1>        -0.3691 
     16 C16         2.2130    5.1387   -8.4571 C.3       1 <1>        -0.0464 
     17 H1          4.9915    5.7768   -6.4628 H         1 <1>         0.0475 
     18 H2          3.6070    6.8852   -6.6652 H         1 <1>         0.0475 
     19 H3          4.2219    4.3151   -8.2759 H         1 <1>         0.0289 
     20 H4          4.1831    5.9933   -8.8868 H         1 <1>         0.0289 
     21 H5          0.5199    4.0271   -7.6864 H         1 <1>         0.0353 
     22 H6          1.9958    3.0443   -7.8902 H         1 <1>         0.0353 
     23 H7          1.5756    3.6514   -4.1169 H         1 <1>         0.1073 
     24 H8         -0.8772    2.8357   -3.7563 H         1 <1>         0.1210 
     25 H9         -2.2720    1.4445   -5.5900 H         1 <1>         0.0706 
     26 H10        -1.3390   -2.2468   -4.6114 H         1 <1>         0.0347 
     27 H11        -1.9501   -1.4510   -6.0945 H         1 <1>         0.0347 
     28 H12        -2.8780   -1.3318   -4.5646 H         1 <1>         0.0347 
     29 H13         1.7015    6.0955   -8.2591 H         1 <1>         0.0281 
     30 H14         2.0562    4.8798   -9.5181 H         1 <1>         0.0281 
@<TRIPOS>BOND
     1    2    1 1    
     2    2    3 1    
     3    5    4 1    
     4    4   16 1    
     5    1    5 1    
     6    1    6 2    
     7    5    7 2    
     8    7    8 1    
     9    8    9 1    
    10    9   10 1    
    11   10   11 1    
    12   12   11 1    
    13   13   12 2    
    14    9   13 1    
    15   12   14 1    
    16   11   15 2    
    17    3   16 1    
    18    2   17 1    
    19    2   18 1    
    20    3   19 1    
    21    3   20 1    
    22    4   21 1    
    23    4   22 1    
    24    7   23 1    
    25    9   24 1    
    26   13   25 1    
    27   14   26 1    
    28   14   27 1    
    29   14   28 1    
    30   16   29 1    
    31   16   30 1    
@<TRIPOS>SUBSTRUCTURE
     1 ****        2 TEMP              0 ****  ****    0 ROOT 
@<TRIPOS>NORMAL
@<TRIPOS>FF_PBC
FORCE_FIELD_SETUP_FEATURE Force Field Setup information
v1.0  0 0.000000 0.000000 0.000000 0.000000 0.000000 0.000000 NONE 0 0 0 0 1 0 0 0 0 0 0 0 0
@<TRIPOS>RENDERING_ATTRS
ANTIALIASED_LINES 
*
