#	Name:			PISM00404
#	Creating user name:	baoopengkun
#	Creation time:		Sun Mar 31 17:28:59 2019

#	Modifying user name:	baoopengkun
#	Modification time:	Sun Mar 31 17:36:55 2019

@<TRIPOS>MOLECULE
PISM00404
   40    40     1     1     0
SMALL
GAST_HUCK


@<TRIPOS>ATOM
      1 C1         -2.7912    4.7551   -3.7020 C.3       1 <1>        -0.0623 
      2 C2         -1.2496    4.6819   -3.9001 C.3       1 <1>        -0.0420 
      3 C3         -0.7010    6.0208   -4.4549 C.3       1 <1>         0.0039 
      4 C4         -1.5832    6.6086   -5.5276 C.2       1 <1>        -0.0407 
      5 C5         -2.8049    6.1447   -5.8357 C.2       1 <1>        -0.0825 
      6 C6         -3.4276    4.9561   -5.1252 C.3       1 <1>         0.0162 
      7 C7         -3.1308    5.9318   -2.7294 C.3       1 <1>        -0.0741 
      8 C8         -3.2705    3.4336   -3.0243 C.3       1 <1>        -0.0741 
      9 C9         -4.9388    5.0935   -5.0612 C.2       1 <1>        -0.1031 
     10 C10        -3.6174    6.7782   -6.9467 C.3       1 <1>        -0.0473 
     11 C11        -5.7738    4.6198   -5.9960 C.2       1 <1>        -0.0274 
     12 C12        -7.2400    4.7418   -5.8666 C.2       1 <1>         0.0135 
     13 C13        -7.8828    4.2762   -4.5802 C.3       1 <1>        -0.0153 
     14 C14        -8.0091    5.2426   -6.8454 C.2       1 <1>         0.0548 
     15 C15        -7.5567    5.7684   -8.1470 C.2       1 <1>         0.2661 
     16 O16        -6.3683    5.8247   -8.4206 O.2       1 <1>        -0.3516 
     17 O17        -8.4590    6.1944   -9.0327 O.3       1 <1>        -0.2932 
     18 O18        -3.0898    3.8689   -6.0063 O.3       1 <1>        -0.4739 
     19 H1         -1.0151    3.8758   -4.6141 H         1 <1>         0.0299 
     20 H2         -0.7387    4.4391   -2.9538 H         1 <1>         0.0299 
     21 H3          0.3115    5.8571   -4.8595 H         1 <1>         0.0597 
     22 H4         -0.6184    6.7606   -3.6436 H         1 <1>         0.0597 
     23 H5         -1.1770    7.4635   -6.0698 H         1 <1>         0.1175 
     24 H6         -3.0557    6.9098   -3.2265 H         1 <1>         0.0219 
     25 H7         -2.4404    5.9284   -1.8722 H         1 <1>         0.0219 
     26 H8         -4.1449    5.8439   -2.3144 H         1 <1>         0.0219 
     27 H9         -4.3696    3.3860   -3.0008 H         1 <1>         0.0219 
     28 H10        -2.9040    3.3844   -1.9872 H         1 <1>         0.0219 
     29 H11        -2.8945    2.5401   -3.5432 H         1 <1>         0.0219 
     30 H12        -5.3942    5.6192   -4.2261 H         1 <1>         0.0477 
     31 H13        -3.8498    6.0085   -7.6962 H         1 <1>         0.0360 
     32 H14        -3.0825    7.5900   -7.4606 H         1 <1>         0.0360 
     33 H15        -4.5561    7.1955   -6.5535 H         1 <1>         0.0360 
     34 H16        -5.3836    4.1242   -6.8840 H         1 <1>         0.1020 
     35 H17        -8.6951    3.5650   -4.7965 H         1 <1>         0.0428 
     36 H18        -8.2970    5.1403   -4.0391 H         1 <1>         0.0428 
     37 H19        -7.1547    3.7709   -3.9264 H         1 <1>         0.0428 
     38 H20        -9.0864    5.2889   -6.6915 H         1 <1>         0.0888 
     39 H21        -8.0502    6.5173   -9.8292 H         1 <1>         0.2516 
     40 H22        -3.4478    3.0313   -5.7379 H         1 <1>         0.1784 
@<TRIPOS>BOND
     1    2    1 1    
     2    2    3 1    
     3    3    4 1    
     4    4    5 2    
     5    5    6 1    
     6    1    6 1    
     7    1    7 1    
     8    1    8 1    
     9    6    9 1    
    10    5   10 1    
    11    9   11 2    
    12   11   12 1    
    13   12   13 1    
    14   12   14 2    
    15   14   15 1    
    16   15   16 2    
    17   15   17 1    
    18    6   18 1    
    19    2   19 1    
    20    2   20 1    
    21    3   21 1    
    22    3   22 1    
    23    4   23 1    
    24    7   24 1    
    25    7   25 1    
    26    7   26 1    
    27    8   27 1    
    28    8   28 1    
    29    8   29 1    
    30    9   30 1    
    31   10   31 1    
    32   10   32 1    
    33   10   33 1    
    34   11   34 1    
    35   13   35 1    
    36   13   36 1    
    37   13   37 1    
    38   14   38 1    
    39   17   39 1    
    40   18   40 1    
@<TRIPOS>SUBSTRUCTURE
     1 ****        2 TEMP              0 ****  ****    0 ROOT 
@<TRIPOS>NORMAL
@<TRIPOS>FF_PBC
FORCE_FIELD_SETUP_FEATURE Force Field Setup information
v1.0  0 0.000000 0.000000 0.000000 0.000000 0.000000 0.000000 NONE 0 0 0 0 1 0 0 0 0 0 0 0 0
