#	Name:			PISM00021
#	Creating user name:	baoopengkun
#	Creation time:		Sat Nov 17 16:40:16 2018

#	Modifying user name:	baoopengkun
#	Modification time:	Sat Nov 17 16:44:37 2018

@<TRIPOS>MOLECULE
PISM00021
   43    46     1     2     0
SMALL
GAST_HUCK


@<TRIPOS>ATOM
      1 C1         -4.0830    3.4064    3.4763 C.ar      1 <1>        -0.0391 
      2 C2         -3.0795    4.3728    3.5812 C.ar      1 <1>        -0.0398 
      3 C3         -1.8003    4.0000    4.0020 C.ar      1 <1>        -0.0391 
      4 C4         -1.5218    2.6644    4.3076 C.ar      1 <1>        -0.0474 
      5 C5         -2.5113    1.6826    4.1666 C.ar      1 <1>        -0.0340 
      6 C6         -3.7985    2.0712    3.7757 C.ar      1 <1>        -0.0474 
      7 C7         -2.2469    0.1870    4.4348 C.3       1 <1>         0.1446 
      8 C8         -0.8651   -0.0727    5.0256 C.2       1 <1>         0.1979 
      9 N9          0.2159   -0.4669    4.3118 N.am      1 <1>        -0.2509 
     10 C10         0.1954   -0.6529    2.9070 C.ar      1 <1>         0.0468 
     11 C11         0.1941    0.4611    2.0527 C.ar      1 <1>        -0.0597 
     12 C12         0.1123    0.3092    0.6622 C.ar      1 <1>        -0.0533 
     13 C13         0.0442   -0.9936    0.1715 C.ar      1 <1>         0.1085 
     14 C14         0.0825   -2.0863    1.0044 C.ar      1 <1>         0.1115 
     15 C15         0.1799   -1.9538    2.3880 C.ar      1 <1>        -0.0199 
     16 O16        -0.7379    0.0897    6.2293 O.2       1 <1>        -0.3663 
     17 O17        -3.2534   -0.2120    5.3888 O.3       1 <1>        -0.4356 
     18 C18        -2.5353   -0.7115    3.2174 C.ar      1 <1>        -0.0340 
     19 C19        -2.6887   -0.2069    1.9189 C.ar      1 <1>        -0.0474 
     20 C20        -2.9320   -1.0691    0.8456 C.ar      1 <1>        -0.0391 
     21 C21        -3.0145   -2.4475    1.0573 C.ar      1 <1>        -0.0398 
     22 C22        -2.8740   -2.9587    2.3498 C.ar      1 <1>        -0.0391 
     23 C23        -2.6425   -2.0923    3.4219 C.ar      1 <1>        -0.0474 
     24 O24        -0.0012   -3.2809    0.3208 O.3       1 <1>        -0.2946 
     25 C25         0.2308   -2.7654   -1.0287 C.3       1 <1>         0.1839 
     26 O26        -0.0772   -1.3408   -1.1571 O.3       1 <1>        -0.3004 
     27 H1         -5.0825    3.6921    3.1626 H         1 <1>         0.0681 
     28 H2         -3.2934    5.4094    3.3386 H         1 <1>         0.0805 
     29 H3         -1.0208    4.7507    4.0932 H         1 <1>         0.0681 
     30 H4         -0.5279    2.4092    4.6585 H         1 <1>         0.0793 
     31 H5         -4.5865    1.3275    3.7023 H         1 <1>         0.0793 
     32 H6          1.0612   -0.6502    4.8140 H         1 <1>         0.2222 
     33 H7          0.2574    1.4574    2.4733 H         1 <1>         0.0390 
     34 H8          0.0992    1.1616   -0.0081 H         1 <1>         0.0477 
     35 H9          0.2319   -2.8232    3.0333 H         1 <1>         0.0401 
     36 H10        -3.1367    0.2295    6.2248 H         1 <1>         0.1880 
     37 H11        -2.6128    0.8563    1.7208 H         1 <1>         0.0793 
     38 H12        -3.0516   -0.6679   -0.1564 H         1 <1>         0.0681 
     39 H13        -3.1844   -3.1182    0.2208 H         1 <1>         0.0805 
     40 H14        -2.9425   -4.0286    2.5207 H         1 <1>         0.0681 
     41 H15        -2.5407   -2.4979    4.4238 H         1 <1>         0.0793 
     42 H16        -0.3193   -3.3567   -1.7767 H         1 <1>         0.0968 
     43 H17         1.3091   -2.8803   -1.2350 H         1 <1>         0.0968 
@<TRIPOS>BOND
     1    2    1 ar   
     2    2    3 ar   
     3    3    4 ar   
     4    4    5 ar   
     5    5    6 ar   
     6    1    6 ar   
     7    5    7 1    
     8    7    8 1    
     9    8    9 am   
    10    9   10 1    
    11   10   11 ar   
    12   11   12 ar   
    13   12   13 ar   
    14   13   14 ar   
    15   14   15 ar   
    16   10   15 ar   
    17    8   16 2    
    18    7   17 1    
    19    7   18 1    
    20   18   19 ar   
    21   19   20 ar   
    22   20   21 ar   
    23   21   22 ar   
    24   22   23 ar   
    25   18   23 ar   
    26   14   24 1    
    27   24   25 1    
    28   25   26 1    
    29   13   26 1    
    30    1   27 1    
    31    2   28 1    
    32    3   29 1    
    33    4   30 1    
    34    6   31 1    
    35    9   32 1    
    36   11   33 1    
    37   12   34 1    
    38   15   35 1    
    39   17   36 1    
    40   19   37 1    
    41   20   38 1    
    42   21   39 1    
    43   22   40 1    
    44   23   41 1    
    45   25   42 1    
    46   25   43 1    
@<TRIPOS>SUBSTRUCTURE
     1 ****        2 TEMP              0 ****  ****    0 ROOT 
@<TRIPOS>NORMAL
@<TRIPOS>FF_PBC
FORCE_FIELD_SETUP_FEATURE Force Field Setup information
v1.0  0 0.000000 0.000000 0.000000 0.000000 0.000000 0.000000 NONE 0 0 0 0 1 0 0 0 0 0 0 0 0
@<TRIPOS>RENDERING_ATTRS
ANTIALIASED_LINES 
*
