#	Name:			PISM00812.1
#	Creating user name:	baoopengkun
#	Creation time:		Fri Nov 30 17:08:06 2018

#	Modifying user name:	baoopengkun
#	Modification time:	Fri Nov 30 17:12:31 2018

@<TRIPOS>MOLECULE
PISM00812.1
   37    38     1     2     0
SMALL
GAST_HUCK


@<TRIPOS>ATOM
      1 C1         -4.6853    1.1424   -1.1532 C.ar      1 <1>        -0.0702 
      2 C2         -4.3943    0.6892   -2.4433 C.ar      1 <1>        -0.0668 
      3 C3         -5.3014    0.8943   -3.4876 C.ar      1 <1>        -0.0519 
      4 C4         -6.5147    1.5329   -3.2143 C.ar      1 <1>        -0.0668 
      5 C5         -6.7922    2.0049   -1.9283 C.ar      1 <1>        -0.0702 
      6 C6         -5.8577    1.8642   -0.8946 C.ar      1 <1>        -0.0345 
      7 C7         -4.9845    0.4285   -4.9137 C.3       1 <1>        -0.0338 
      8 C8         -6.1505    2.4790    0.4617 C.2       1 <1>         0.0787 
      9 C9         -7.5617    2.6162    0.8749 C.2       1 <1>         0.2388 
     10 O10        -8.2212    3.7853    0.8027 O.3       1 <1>        -0.2865 
     11 C11        -7.4807    4.9006    0.2657 C.3       1 <1>         0.0638 
     12 O12        -8.1468    1.6356    1.3003 O.2       1 <1>        -0.3769 
     13 C13        -5.2031    2.9059    1.3089 C.2       1 <1>         0.1029 
     14 O14        -3.9088    2.8653    0.9611 O.3       1 <1>        -0.2516 
     15 C15        -3.0001    3.3703    1.9571 C.3       1 <1>         0.2451 
     16 C16        -3.1629    4.8634    2.1383 C.2       1 <1>         0.0003 
     17 C17        -2.0682    5.5064    1.7368 C.2       1 <1>         0.0294 
     18 C18        -1.1825    4.4330    1.3031 C.2       1 <1>         0.2496 
     19 O19        -1.6684    3.2050    1.4313 O.3       1 <1>        -0.2294 
     20 C20        -1.8061    6.9876    1.7204 C.3       1 <1>        -0.0323 
     21 O21        -0.0669    4.6434    0.8597 O.2       1 <1>        -0.3691 
     22 H1         -3.9883    0.9085   -0.3570 H         1 <1>         0.0542 
     23 H2         -3.4586    0.1712   -2.6282 H         1 <1>         0.0542 
     24 H3         -7.2479    1.6640   -4.0041 H         1 <1>         0.0542 
     25 H4         -7.7481    2.4844   -1.7462 H         1 <1>         0.0542 
     26 H5         -3.9057    0.2617   -5.0521 H         1 <1>         0.0381 
     27 H6         -5.3137    1.1862   -5.6408 H         1 <1>         0.0381 
     28 H7         -5.5197   -0.5127   -5.1077 H         1 <1>         0.0381 
     29 H8         -8.1751    5.7526    0.2213 H         1 <1>         0.0574 
     30 H9         -7.1140    4.7101   -0.7548 H         1 <1>         0.0574 
     31 H10        -6.6388    5.1883    0.9127 H         1 <1>         0.0574 
     32 H11        -5.5370    3.2896    2.2765 H         1 <1>         0.1305 
     33 H12        -3.0709    2.8215    2.9118 H         1 <1>         0.1225 
     34 H13        -4.0488    5.3564    2.5363 H         1 <1>         0.0707 
     35 H14        -2.7344    7.5396    1.5100 H         1 <1>         0.0347 
     36 H15        -1.0655    7.2291    0.9432 H         1 <1>         0.0347 
     37 H16        -1.4135    7.3011    2.6990 H         1 <1>         0.0347 
@<TRIPOS>BOND
     1    2    1 ar   
     2    2    3 ar   
     3    3    4 ar   
     4    4    5 ar   
     5    5    6 ar   
     6    1    6 ar   
     7    3    7 1    
     8    6    8 1    
     9    8    9 1    
    10    9   10 1    
    11   10   11 1    
    12    9   12 2    
    13    8   13 2    
    14   13   14 1    
    15   14   15 1    
    16   15   16 1    
    17   16   17 2    
    18   17   18 1    
    19   18   19 1    
    20   15   19 1    
    21   17   20 1    
    22   18   21 2    
    23    1   22 1    
    24    2   23 1    
    25    4   24 1    
    26    5   25 1    
    27    7   26 1    
    28    7   27 1    
    29    7   28 1    
    30   11   29 1    
    31   11   30 1    
    32   11   31 1    
    33   13   32 1    
    34   15   33 1    
    35   16   34 1    
    36   20   35 1    
    37   20   36 1    
    38   20   37 1    
@<TRIPOS>SUBSTRUCTURE
     1 ****        2 TEMP              0 ****  ****    0 ROOT 
@<TRIPOS>NORMAL
@<TRIPOS>FF_PBC
FORCE_FIELD_SETUP_FEATURE Force Field Setup information
v1.0  0 0.000000 0.000000 0.000000 0.000000 0.000000 0.000000 NONE 0 0 0 0 1 0 0 0 0 0 0 0 0
@<TRIPOS>RENDERING_ATTRS
ANTIALIASED_LINES 
*
