#	Name:			PISM00730
#	Creating user name:	baoopengkun
#	Creation time:		Sun Jan 20 21:58:07 2019

#	Modifying user name:	baoopengkun
#	Modification time:	Sun Jan 20 22:12:00 2019

@<TRIPOS>MOLECULE
PISM00730
   84    87     1     1     0
SMALL
GAST_HUCK


@<TRIPOS>ATOM
      1 C1         -5.2996    6.6358   -0.0640 C.3       1 <1>        -0.0163 
      2 C2         -6.4447    5.6047    0.1572 C.3       1 <1>         0.0819 
      3 C3         -6.0756    4.5946    1.2773 C.3       1 <1>         0.0835 
      4 C4         -5.7298    5.3460    2.5924 C.3       1 <1>        -0.0028 
      5 C5         -4.5493    6.3230    2.3236 C.3       1 <1>         0.0681 
      6 C6         -4.8722    7.4017    1.2302 C.3       1 <1>        -0.0055 
      7 C7         -3.6092    8.3227    0.9796 C.3       1 <1>        -0.0276 
      8 C8         -2.2507    7.5578    1.0910 C.3       1 <1>        -0.0063 
      9 C9         -1.8792    7.2898    2.5913 C.3       1 <1>         0.0801 
     10 O10        -2.8528    7.6052    3.6164 O.3       1 <1>        -0.2763 
     11 C11        -4.0593    7.0128    3.5701 C.2       1 <1>         0.2374 
     12 O12        -4.7737    7.0600    4.5569 O.2       1 <1>        -0.3701 
     13 C13        -3.6426    9.1688   -0.3314 C.3       1 <1>        -0.0487 
     14 C14        -2.5191   10.2585   -0.3553 C.3       1 <1>        -0.0468 
     15 C15        -1.1249    9.7792    0.1860 C.3       1 <1>        -0.0257 
     16 C16        -1.1451    8.2262    0.2044 C.3       1 <1>        -0.0298 
     17 C17         0.3258    7.7779    0.3741 C.3       1 <1>        -0.0491 
     18 C18         1.1164    8.9036   -0.3531 C.3       1 <1>        -0.0491 
     19 C19         0.0953   10.0112   -0.7772 C.3       1 <1>        -0.0304 
     20 O20        -6.6953    4.8682   -1.0564 O.3       1 <1>        -0.3892 
     21 O21        -4.9465    3.8073    0.8467 O.3       1 <1>        -0.3891 
     22 C22         5.2339   12.4798   -1.1769 C.3       1 <1>         0.0912 
     23 C23        -6.0463    8.3273    1.7089 C.3       1 <1>        -0.0568 
     24 C24        -0.8278   10.3907    1.5931 C.3       1 <1>        -0.0590 
     25 C25         0.7481   11.4371   -0.8702 C.3       1 <1>        -0.0120 
     26 C26         1.9443   11.4256   -1.8824 C.3       1 <1>         0.0842 
     27 C27         2.7434   12.7731   -1.9553 C.3       1 <1>         0.0865 
     28 C28         4.2431   12.5920   -2.3988 C.3       1 <1>         0.0154 
     29 C29         6.7152   12.2558   -1.6354 C.3       1 <1>         0.0730 
     30 O30         7.3324   13.4762   -2.0913 O.3       1 <1>        -0.3922 
     31 C31         4.8510   11.3229   -0.2033 C.3       1 <1>        -0.0336 
     32 C32        -0.2823   12.5341   -1.2653 C.3       1 <1>        -0.0597 
     33 O33         1.4380   11.0623   -3.1844 O.3       1 <1>        -0.3890 
     34 O34         2.0147   13.6954   -2.7894 O.3       1 <1>        -0.3889 
     35 C35         4.6762   13.7442   -3.3564 C.3       1 <1>        -0.0573 
     36 O36         5.1367   13.7132   -0.4395 O.3       1 <1>        -0.3862 
     37 H1         -5.6434    7.3493   -0.8282 H         1 <1>         0.0298 
     38 H2         -4.4414    6.0859   -0.4784 H         1 <1>         0.0298 
     39 H3         -7.3856    6.1094    0.4325 H         1 <1>         0.0619 
     40 H4         -6.9422    3.9265    1.4343 H         1 <1>         0.0621 
     41 H5         -5.4266    4.6064    3.3529 H         1 <1>         0.0319 
     42 H6         -6.6153    5.8560    2.9958 H         1 <1>         0.0319 
     43 H7         -3.7601    5.6281    2.0148 H         1 <1>         0.0560 
     44 H8         -3.6000    9.0842    1.7728 H         1 <1>         0.0311 
     45 H9         -2.3587    6.5757    0.6022 H         1 <1>         0.0332 
     46 H10        -1.0612    7.9480    2.9021 H         1 <1>         0.0616 
     47 H11        -1.5135    6.2591    2.7334 H         1 <1>         0.0616 
     48 H12        -4.6024    9.6918   -0.4575 H         1 <1>         0.0268 
     49 H13        -3.5410    8.5005   -1.2004 H         1 <1>         0.0268 
     50 H14        -2.8728   11.1097    0.2494 H         1 <1>         0.0271 
     51 H15        -2.4394   10.6139   -1.3948 H         1 <1>         0.0271 
     52 H16        -1.3602    7.9281   -0.8406 H         1 <1>         0.0310 
     53 H17         0.5013    6.7810   -0.0663 H         1 <1>         0.0268 
     54 H18         0.6402    7.7246    1.4255 H         1 <1>         0.0268 
     55 H19         1.6382    8.4892   -1.2327 H         1 <1>         0.0268 
     56 H20         1.8773    9.3122    0.3328 H         1 <1>         0.0268 
     57 H21        -0.2440    9.7675   -1.7990 H         1 <1>         0.0310 
     58 H22        -6.9457    5.4175   -1.7926 H         1 <1>         0.2099 
     59 H23        -4.7090    3.1166    1.4577 H         1 <1>         0.2099 
     60 H24        -6.2919    9.0864    0.9553 H         1 <1>         0.0237 
     61 H25        -5.7773    8.8556    2.6360 H         1 <1>         0.0237 
     62 H26        -6.9836    7.8014    1.9156 H         1 <1>         0.0237 
     63 H27         0.1257   10.0364    2.0079 H         1 <1>         0.0235 
     64 H28        -1.6204   10.1618    2.3152 H         1 <1>         0.0235 
     65 H29        -0.7729   11.4862    1.5389 H         1 <1>         0.0235 
     66 H30         1.1567   11.6957    0.1199 H         1 <1>         0.0327 
     67 H31         2.6344   10.6316   -1.5738 H         1 <1>         0.0622 
     68 H32         2.7474   13.2703   -0.9730 H         1 <1>         0.0623 
     69 H33         4.3237   11.6694   -2.9961 H         1 <1>         0.0352 
     70 H34         6.7460   11.4771   -2.4151 H         1 <1>         0.0586 
     71 H35         7.3233   11.9063   -0.7841 H         1 <1>         0.0586 
     72 H36         8.2322   13.3651   -2.3842 H         1 <1>         0.2095 
     73 H37         3.8611   11.4835    0.2457 H         1 <1>         0.0258 
     74 H38         5.5601   11.2624    0.6363 H         1 <1>         0.0258 
     75 H39         4.8675   10.3562   -0.7287 H         1 <1>         0.0258 
     76 H40        -0.6679   12.3508   -2.2794 H         1 <1>         0.0233 
     77 H41         0.1712   13.5344   -1.2367 H         1 <1>         0.0233 
     78 H42        -1.1288   12.5696   -0.5704 H         1 <1>         0.0233 
     79 H43         2.1122   10.9128   -3.8401 H         1 <1>         0.2099 
     80 H44         1.7839   13.3267   -3.6349 H         1 <1>         0.2099 
     81 H45         5.6757   13.5721   -3.7768 H         1 <1>         0.0234 
     82 H46         4.6748   14.7048   -2.8192 H         1 <1>         0.0234 
     83 H47         4.0082   13.8292   -4.2253 H         1 <1>         0.0234 
     84 H48         5.7539   13.7726    0.2824 H         1 <1>         0.2103 
@<TRIPOS>BOND
     1    2    1 1    
     2    2    3 1    
     3    3    4 1    
     4    4    5 1    
     5    6    5 1    
     6    1    6 1    
     7    6    7 1    
     8    7    8 1    
     9    8    9 1    
    10   10    9 1    
    11   11   10 1    
    12   11   12 2    
    13    5   11 1    
    14    7   13 1    
    15   13   14 1    
    16   14   15 1    
    17   16   15 1    
    18    8   16 1    
    19   16   17 1    
    20   17   18 1    
    21   19   18 1    
    22   15   19 1    
    23    2   20 1    
    24    3   21 1    
    25   28   22 1    
    26    6   23 1    
    27   15   24 1    
    28   19   25 1    
    29   25   26 1    
    30   26   27 1    
    31   27   28 1    
    32   22   29 1    
    33   29   30 1    
    34   22   31 1    
    35   25   32 1    
    36   26   33 1    
    37   27   34 1    
    38   28   35 1    
    39   22   36 1    
    40    1   37 1    
    41    1   38 1    
    42    2   39 1    
    43    3   40 1    
    44    4   41 1    
    45    4   42 1    
    46    5   43 1    
    47    7   44 1    
    48    8   45 1    
    49    9   46 1    
    50    9   47 1    
    51   13   48 1    
    52   13   49 1    
    53   14   50 1    
    54   14   51 1    
    55   16   52 1    
    56   17   53 1    
    57   17   54 1    
    58   18   55 1    
    59   18   56 1    
    60   19   57 1    
    61   20   58 1    
    62   21   59 1    
    63   23   60 1    
    64   23   61 1    
    65   23   62 1    
    66   24   63 1    
    67   24   64 1    
    68   24   65 1    
    69   25   66 1    
    70   26   67 1    
    71   27   68 1    
    72   28   69 1    
    73   29   70 1    
    74   29   71 1    
    75   30   72 1    
    76   31   73 1    
    77   31   74 1    
    78   31   75 1    
    79   32   76 1    
    80   32   77 1    
    81   32   78 1    
    82   33   79 1    
    83   34   80 1    
    84   35   81 1    
    85   35   82 1    
    86   35   83 1    
    87   36   84 1    
@<TRIPOS>SUBSTRUCTURE
     1 ****        2 TEMP              0 ****  ****    0 ROOT 
@<TRIPOS>NORMAL
@<TRIPOS>FF_PBC
FORCE_FIELD_SETUP_FEATURE Force Field Setup information
v1.0  0 0.000000 0.000000 0.000000 0.000000 0.000000 0.000000 NONE 0 0 0 0 1 0 0 0 0 0 0 0 0
