#	Name:			PISM00769
#	Creating user name:	baoopengkun
#	Creation time:		Tue Nov 20 09:58:54 2018

#	Modifying user name:	baoopengkun
#	Modification time:	Tue Nov 20 10:45:15 2018

@<TRIPOS>MOLECULE
PISM00769
   47    50     1     3     0
SMALL
GAST_HUCK


@<TRIPOS>ATOM
      1 C1         -0.0987    8.5960   -4.9310 C.3       1 <1>        -0.0240 
      2 C2          0.2699    7.3124   -5.7058 C.3       1 <1>        -0.0149 
      3 C3          1.5837    7.7076   -6.3154 C.2       1 <1>        -0.0647 
      4 C4          1.8425    9.1933   -6.2789 C.3       1 <1>         0.0401 
      5 C5          0.4704    9.7507   -5.7993 C.3       1 <1>         0.0131 
      6 C6          2.4269    6.8180   -6.8519 C.2       1 <1>        -0.1285 
      7 C7          3.0011    9.5698   -5.3115 C.3       1 <1>         0.1095 
      8 C8          0.5433   11.1022   -5.1104 C.2       1 <1>        -0.0674 
      9 C9          1.4001   12.1610   -5.7696 C.3       1 <1>        -0.0162 
     10 C10         2.8307   12.1688   -5.1668 C.3       1 <1>        -0.0307 
     11 C11         3.6611   10.9481   -5.6431 C.3       1 <1>         0.0226 
     12 C12        -0.1095   11.3872   -3.9738 C.2       1 <1>        -0.1285 
     13 O13         4.0637    8.5928   -5.2788 O.3       1 <1>        -0.2758 
     14 C14         5.1453    9.2743   -4.9345 C.2       1 <1>         0.2357 
     15 C15         5.0030   10.7215   -5.0024 C.2       1 <1>         0.0531 
     16 O16         6.1862    8.7300   -4.6085 O.2       1 <1>        -0.3780 
     17 C17         5.8946   11.6260   -4.5832 C.2       1 <1>         0.0787 
     18 O18         5.6380   12.9327   -4.7229 O.3       1 <1>        -0.2722 
     19 C19         6.6877   13.7775   -4.2237 C.3       1 <1>         0.2383 
     20 O20         6.8901   13.5348   -2.8164 O.3       1 <1>        -0.2305 
     21 C21         6.5399   14.6636   -2.2125 C.2       1 <1>         0.2495 
     22 O22         6.5802   14.7845   -1.0004 O.2       1 <1>        -0.3691 
     23 C23         6.1138   15.7427   -3.0968 C.2       1 <1>         0.0293 
     24 C24         6.2095   15.2056   -4.3113 C.2       1 <1>        -0.0010 
     25 C25         5.6694   17.1318   -2.7285 C.3       1 <1>        -0.0323 
     26 H1          0.4098    8.5713   -3.9530 H         1 <1>         0.0323 
     27 H2         -1.1865    8.6696   -4.7673 H         1 <1>         0.0323 
     28 H3         -0.4507    7.1292   -6.5189 H         1 <1>         0.0462 
     29 H4          0.3344    6.4211   -5.0608 H         1 <1>         0.0462 
     30 H5          2.0841    9.5203   -7.3029 H         1 <1>         0.0555 
     31 H6         -0.1893    9.8596   -6.6776 H         1 <1>         0.0527 
     32 H7          2.1863    5.7555   -6.8534 H         1 <1>         0.0075 
     33 H8          3.3677    7.1341   -7.3012 H         1 <1>         0.0075 
     34 H9          2.6281    9.5955   -4.2730 H         1 <1>         0.0696 
     35 H10         0.9428   13.1491   -5.5927 H         1 <1>         0.0461 
     36 H11         1.4343   12.0203   -6.8615 H         1 <1>         0.0461 
     37 H12         3.3328   13.0912   -5.5008 H         1 <1>         0.0309 
     38 H13         2.7794   12.1858   -4.0660 H         1 <1>         0.0309 
     39 H14         3.8511   11.0287   -6.7260 H         1 <1>         0.0421 
     40 H15        -0.7532   10.6829   -3.4519 H         1 <1>         0.0075 
     41 H16        -0.0203   12.3699   -3.5112 H         1 <1>         0.0075 
     42 H17         6.8150   11.2415   -4.1358 H         1 <1>         0.1070 
     43 H18         7.6306   13.6511   -4.7827 H         1 <1>         0.1210 
     44 H19         5.9702   15.7197   -5.2413 H         1 <1>         0.0706 
     45 H20         5.6296   17.2438   -1.6346 H         1 <1>         0.0347 
     46 H21         4.6688   17.3247   -3.1431 H         1 <1>         0.0347 
     47 H22         6.3779   17.8673   -3.1375 H         1 <1>         0.0347 
@<TRIPOS>BOND
     1    2    1 1    
     2    2    3 1    
     3    3    4 1    
     4    4    5 1    
     5    1    5 1    
     6    3    6 2    
     7    4    7 1    
     8    5    8 1    
     9    8    9 1    
    10   11   10 1    
    11    9   10 1    
    12    7   11 1    
    13    8   12 2    
    14    7   13 1    
    15   13   14 1    
    16   14   15 1    
    17   11   15 1    
    18   14   16 2    
    19   15   17 2    
    20   17   18 1    
    21   18   19 1    
    22   19   20 1    
    23   20   21 1    
    24   21   22 2    
    25   21   23 1    
    26   23   24 2    
    27   19   24 1    
    28   23   25 1    
    29    1   26 1    
    30    1   27 1    
    31    2   28 1    
    32    2   29 1    
    33    4   30 1    
    34    5   31 1    
    35    6   32 1    
    36    6   33 1    
    37    7   34 1    
    38    9   35 1    
    39    9   36 1    
    40   10   37 1    
    41   10   38 1    
    42   11   39 1    
    43   12   40 1    
    44   12   41 1    
    45   17   42 1    
    46   19   43 1    
    47   24   44 1    
    48   25   45 1    
    49   25   46 1    
    50   25   47 1    
@<TRIPOS>SUBSTRUCTURE
     1 ****        2 TEMP              0 ****  ****    0 ROOT 
@<TRIPOS>NORMAL
@<TRIPOS>FF_PBC
FORCE_FIELD_SETUP_FEATURE Force Field Setup information
v1.0  0 0.000000 0.000000 0.000000 0.000000 0.000000 0.000000 NONE 0 0 0 0 1 0 0 0 0 0 0 0 0
@<TRIPOS>RENDERING_ATTRS
LINES           
1,2,3,4,5,6,7,8,9,10,11,12,13,14,15,16,17,18,26,27,28,29,30,31,32,33,34,35,36,37,38,39,40,41,42
ANTIALIASED_LINES 
19,20,21,22,23,24,25,43,44,45,46,47
