#	Name:			PISM00334
#	Creating user name:	baoopengkun
#	Creation time:		Wed Dec 26 16:33:40 2018

#	Modifying user name:	baoopengkun
#	Modification time:	Wed Dec 26 16:35:36 2018

@<TRIPOS>MOLECULE
PISM00334
   40    40     1     1     0
SMALL
GAST_HUCK


@<TRIPOS>ATOM
      1 C1        -15.4834   -9.8467  -18.5521 C.3       1 <1>        -0.0542 
      2 C2        -14.5889  -10.4297  -19.6960 C.3       1 <1>         0.0202 
      3 C3        -15.4898  -10.7056  -20.9342 C.3       1 <1>         0.0297 
      4 C4        -16.4578  -11.8359  -20.7001 C.2       1 <1>         0.1060 
      5 C5        -16.0508  -12.9568  -19.7814 C.3       1 <1>         0.0271 
      6 C6        -14.5081  -13.0994  -19.7010 C.3       1 <1>         0.0117 
      7 C7        -13.8320  -11.7499  -19.2636 C.3       1 <1>         0.1338 
      8 C8        -13.5869   -9.2896  -20.0745 C.3       1 <1>        -0.0542 
      9 O9        -17.5505  -11.8442  -21.2423 O.2       1 <1>        -0.3916 
     10 C10       -13.9443  -13.7362  -21.0115 C.3       1 <1>        -0.0568 
     11 O11       -13.5969  -11.7792  -17.8424 O.3       1 <1>        -0.3764 
     12 C12       -12.4616  -11.7466  -19.7699 C.1       1 <1>        -0.0746 
     13 C13       -11.3342  -11.7431  -20.1895 C.1       1 <1>        -0.0831 
     14 C14        -9.9854  -11.7408  -20.6945 C.2       1 <1>        -0.0106 
     15 C15        -9.5785  -10.5643  -21.5476 C.3       1 <1>        -0.0335 
     16 C16        -9.1507  -12.7511  -20.4073 C.2       1 <1>        -0.0518 
     17 C17        -9.5048  -13.9462  -19.5551 C.3       1 <1>         0.0667 
     18 O18        -8.4478  -14.1181  -18.5939 O.3       1 <1>        -0.3842 
     19 H1        -16.0206   -8.9477  -18.8917 H         1 <1>         0.0238 
     20 H2        -14.8667   -9.5474  -17.6907 H         1 <1>         0.0238 
     21 H3        -16.2422  -10.5563  -18.2012 H         1 <1>         0.0238 
     22 H4        -14.8802  -10.9349  -21.8180 H         1 <1>         0.0500 
     23 H5        -16.0740   -9.8052  -21.1816 H         1 <1>         0.0500 
     24 H6        -16.5012  -13.8906  -20.1532 H         1 <1>         0.0498 
     25 H7        -16.4744  -12.7800  -18.7830 H         1 <1>         0.0498 
     26 H8        -14.2898  -13.8538  -18.9235 H         1 <1>         0.0360 
     27 H9        -12.8972   -9.0950  -19.2383 H         1 <1>         0.0238 
     28 H10       -14.1181   -8.3527  -20.3032 H         1 <1>         0.0238 
     29 H11       -12.9911   -9.5462  -20.9640 H         1 <1>         0.0238 
     30 H12       -12.8853  -14.0156  -20.8944 H         1 <1>         0.0235 
     31 H13       -14.0249  -13.0631  -21.8736 H         1 <1>         0.0235 
     32 H14       -14.4910  -14.6605  -21.2556 H         1 <1>         0.0235 
     33 H15       -14.3779  -11.9187  -17.3190 H         1 <1>         0.2113 
     34 H16        -9.6968   -9.6385  -20.9646 H         1 <1>         0.0355 
     35 H17       -10.2352  -10.5130  -22.4291 H         1 <1>         0.0355 
     36 H18        -8.5354  -10.6273  -21.8929 H         1 <1>         0.0355 
     37 H19        -8.1354  -12.7393  -20.8044 H         1 <1>         0.0552 
     38 H20        -9.5715  -14.8286  -20.2129 H         1 <1>         0.0707 
     39 H21       -10.4683  -13.8243  -19.0329 H         1 <1>         0.0707 
     40 H22        -8.5756  -14.8702  -18.0232 H         1 <1>         0.2127 
@<TRIPOS>BOND
     1    2    1 1    
     2    2    3 1    
     3    3    4 1    
     4    4    5 1    
     5    5    6 1    
     6    6    7 1    
     7    2    7 1    
     8    2    8 1    
     9    4    9 2    
    10    6   10 1    
    11    7   11 1    
    12    7   12 1    
    13   12   13 3    
    14   13   14 1    
    15   14   15 1    
    16   14   16 2    
    17   16   17 1    
    18   17   18 1    
    19    1   19 1    
    20    1   20 1    
    21    1   21 1    
    22    3   22 1    
    23    3   23 1    
    24    5   24 1    
    25    5   25 1    
    26    6   26 1    
    27    8   27 1    
    28    8   28 1    
    29    8   29 1    
    30   10   30 1    
    31   10   31 1    
    32   10   32 1    
    33   11   33 1    
    34   15   34 1    
    35   15   35 1    
    36   15   36 1    
    37   16   37 1    
    38   17   38 1    
    39   17   39 1    
    40   18   40 1    
@<TRIPOS>SUBSTRUCTURE
     1 ****        2 TEMP              0 ****  ****    0 ROOT 
@<TRIPOS>NORMAL
@<TRIPOS>FF_PBC
FORCE_FIELD_SETUP_FEATURE Force Field Setup information
v1.0  0 0.000000 0.000000 0.000000 0.000000 0.000000 0.000000 NONE 0 0 0 0 1 0 0 0 0 0 0 0 0
