#	Name:			PISM00199
#	Creating user name:	14062
#	Creation time:		Wed Jun 19 15:19:13 2019

#	Modifying user name:	14062
#	Modification time:	Wed Jun 19 15:21:58 2019

@<TRIPOS>MOLECULE
PISM00199
   28    28     1     1     0
SMALL
GAST_HUCK


@<TRIPOS>ATOM
      1 C1         -4.9137   -0.9862   -3.2070 C.3       1 BENZYL      0.1806 
      2 O2         -4.6457   -2.2834   -3.7851 O.3       1 BENZYL     -0.2917 
      3 C2         -3.3114   -2.5751   -4.0783 C.ar      1 BENZYL      0.1096 
      4 C3         -2.8501   -2.4879   -5.3951 C.ar      1 BENZYL     -0.0315 
      5 C4         -1.5036   -2.7253   -5.6861 C.ar      1 BENZYL     -0.0564 
      6 C5         -0.6184   -3.0704   -4.6614 C.ar      1 BENZYL      0.0291 
      7 C6         -1.0855   -3.1955   -3.3505 C.ar      1 BENZYL     -0.0426 
      8 C7         -2.4330   -2.9637   -3.0606 C.ar      1 BENZYL      0.0688 
      9 Cl9         1.0734   -3.3479   -5.0198 Cl        1 BENZYL     -0.0810 
     10 Cl10       -3.0110   -3.1699   -1.4189 Cl        1 BENZYL     -0.0787 
     11 C11        -6.3516   -0.9164   -2.7231 C.2       1 BENZYL      0.2656 
     12 O12        -7.1845   -1.7339   -3.0759 O.2       1 BENZYL     -0.3672 
     13 O13        -6.7308    0.0633   -1.8924 O.3       1 BENZYL     -0.2904 
     14 C14        -4.6363    0.1505   -4.2310 C.3       1 BENZYL     -0.0034 
     15 C15        -5.6186    0.0963   -5.4340 C.3       1 BENZYL     -0.0509 
     16 H1         -4.2672   -0.8545   -2.3249 H         1 BENZYL      0.0913 
     17 H2         -3.5385   -2.2357   -6.1937 H         1 BENZYL      0.0543 
     18 H3         -1.1435   -2.6424   -6.7066 H         1 BENZYL      0.0597 
     19 H4         -0.4007   -3.4746   -2.5568 H         1 BENZYL      0.0601 
     20 H5         -6.0495    0.6730   -1.6395 H         1 BENZYL      0.2540 
     21 H6         -3.5990    0.0667   -4.5915 H         1 BENZYL      0.0320 
     22 H7         -4.7357    1.1315   -3.7386 H         1 BENZYL      0.0320 
     23 C23        -5.2480    1.1491   -6.5106 C.3       1 BENZYL     -0.0650 
     24 H9         -6.6469    0.2936   -5.0879 H         1 BENZYL      0.0265 
     25 H10        -5.6028   -0.9068   -5.8888 H         1 BENZYL      0.0265 
     26 H8         -4.2371    0.9581   -6.9038 H         1 BENZYL      0.0230 
     27 H11        -5.2756    2.1631   -6.0818 H         1 BENZYL      0.0230 
     28 H12        -5.9625    1.1033   -7.3479 H         1 BENZYL      0.0230 
@<TRIPOS>BOND
     1    2    3 1    
     2    3    4 ar   
     3    3    8 ar   
     4    8    7 ar   
     5    7    6 ar   
     6    6    5 ar   
     7    5    4 ar   
     8    2    1 1    
     9    6    9 1    
    10    8   10 1    
    11    1   11 1    
    12   11   12 2    
    13   11   13 1    
    14    1   14 1    
    15   14   15 1    
    16    1   16 1    
    17    4   17 1    
    18    5   18 1    
    19    7   19 1    
    20   13   20 1    
    21   14   21 1    
    22   14   22 1    
    23   15   23 1    
    24   15   24 1    
    25   15   25 1    
    26   23   26 1    
    27   23   27 1    
    28   23   28 1    
@<TRIPOS>SUBSTRUCTURE
     1 BENZYL      2 PERM              0 ****  ****    0 ROOT 
@<TRIPOS>NORMAL
@<TRIPOS>FF_PBC
FORCE_FIELD_SETUP_FEATURE Force Field Setup information
v1.0  0 0.000000 0.000000 0.000000 0.000000 0.000000 0.000000 NONE 0 0 0 0 1 0 0 0 0 0 0 0 0
