#	Name:			PISM00934.1
#	Creating user name:	baoopengkun
#	Creation time:		Wed Dec 12 22:41:34 2018

#	Modifying user name:	baoopengkun
#	Modification time:	Wed Dec 12 22:46:20 2018

@<TRIPOS>MOLECULE
PISM00934.1
   28    28     1     1     0
SMALL
GAST_HUCK


@<TRIPOS>ATOM
      1 C1          2.0466  -11.8904   10.2138 C.3       1 <1>        -0.0422 
      2 C2          2.4068  -10.6418    9.4556 C.2       1 <1>         0.0167 
      3 C3          3.5144   -9.9054    9.5295 C.2       1 <1>        -0.0167 
      4 C4          3.4582   -8.7155    8.5971 C.3       1 <1>         0.1220 
      5 O5          2.1865   -8.8545    7.9277 O.3       1 <1>        -0.2655 
      6 C6          1.6186   -9.9380    8.4489 C.2       1 <1>         0.2292 
      7 C7          4.7287  -10.1354   10.3933 C.3       1 <1>        -0.0251 
      8 C8          3.5051   -7.3519    9.3345 C.3       1 <1>        -0.0101 
      9 O9          0.5122  -10.3129    8.1007 O.2       1 <1>        -0.3823 
     10 H1          1.0355  -12.2246    9.9373 H         1 <1>         0.0303 
     11 C11         2.3845   -7.2265   10.4039 C.3       1 <1>        -0.0484 
     12 C12         2.4317   -5.8438   11.1093 C.3       1 <1>        -0.0556 
     13 C13         1.3170   -5.7194   12.1805 C.3       1 <1>        -0.0653 
     14 H2          2.0704  -11.6892   11.2951 H         1 <1>         0.0303 
     15 H3          2.7626  -12.6912    9.9765 H         1 <1>         0.0303 
     16 H4          4.2634   -8.7847    7.8470 H         1 <1>         0.0848 
     17 H5          4.6624  -11.0973   10.9225 H         1 <1>         0.0428 
     18 H6          4.8214   -9.3351   11.1418 H         1 <1>         0.0428 
     19 H7          5.6324  -10.1454    9.7660 H         1 <1>         0.0428 
     20 H8          3.3812   -6.5538    8.5845 H         1 <1>         0.0321 
     21 H9          4.4913   -7.2244    9.8085 H         1 <1>         0.0321 
     22 H10         2.4992   -8.0182   11.1617 H         1 <1>         0.0268 
     23 H11         1.4012   -7.3526    9.9217 H         1 <1>         0.0268 
     24 H12         2.3032   -5.0431   10.3618 H         1 <1>         0.0263 
     25 H13         3.4131   -5.7090   11.5941 H         1 <1>         0.0263 
     26 H14         1.3658   -4.7315   12.6655 H         1 <1>         0.0230 
     27 H15         1.4377   -6.4948   12.9530 H         1 <1>         0.0230 
     28 H16         0.3244   -5.8333   11.7173 H         1 <1>         0.0230 
@<TRIPOS>BOND
     1    2    1 1    
     2    2    3 2    
     3    3    4 1    
     4    4    5 1    
     5    5    6 1    
     6    2    6 1    
     7    3    7 1    
     8    4    8 1    
     9    6    9 2    
    10    1   10 1    
    11    8   11 1    
    12   11   12 1    
    13   12   13 1    
    14    1   14 1    
    15    1   15 1    
    16    4   16 1    
    17    7   17 1    
    18    7   18 1    
    19    7   19 1    
    20    8   20 1    
    21    8   21 1    
    22   11   22 1    
    23   11   23 1    
    24   12   24 1    
    25   12   25 1    
    26   13   26 1    
    27   13   27 1    
    28   13   28 1    
@<TRIPOS>SUBSTRUCTURE
     1 ****        2 TEMP              0 ****  ****    0 ROOT 
@<TRIPOS>NORMAL
@<TRIPOS>FF_PBC
FORCE_FIELD_SETUP_FEATURE Force Field Setup information
v1.0  0 0.000000 0.000000 0.000000 0.000000 0.000000 0.000000 NONE 0 0 0 0 1 0 0 0 0 0 0 0 0
