#	Name:			PISM00306
#	Creating user name:	baoopengkun
#	Creation time:		Sun Dec 16 03:58:57 2018

#	Modifying user name:	baoopengkun
#	Modification time:	Sun Dec 16 04:01:00 2018

@<TRIPOS>MOLECULE
PISM00306
   35    36     1     1     0
SMALL
GAST_HUCK


@<TRIPOS>ATOM
      1 N1         -8.5542   17.9358   49.9002 N.pl3     1 <1>         0.0306 
      2 O2         -8.6847   17.1859   50.8440 O.2       1 <1>        -0.1267 
      3 O3         -9.4750   18.9846   49.7508 O.3       1 <1>        -0.2397 
      4 C4         -7.5462   17.7625   49.0066 C.ar      1 <1>         0.1124 
      5 C5         -6.6145   16.7282   49.1648 C.ar      1 <1>        -0.0417 
      6 C6         -5.5752   16.5550   48.2456 C.ar      1 <1>        -0.0720 
      7 C7         -5.4511   17.4155   47.1502 C.ar      1 <1>        -0.0437 
      8 C8         -6.3791   18.4480   46.9873 C.ar      1 <1>        -0.0720 
      9 C9         -7.4187   18.6189   47.9061 C.ar      1 <1>        -0.0417 
     10 C10        -4.3399   17.2602   46.1349 C.2       1 <1>         0.0043 
     11 C11        -3.3405   16.3630   46.0268 C.2       1 <1>         0.0370 
     12 N12        -2.6309   16.6570   44.9581 N.pl3     1 <1>        -0.2518 
     13 C13        -3.1168   17.7013   44.3633 C.2       1 <1>         0.1800 
     14 N14        -4.1182   18.1076   44.9972 N.2       1 <1>        -0.3211 
     15 S15        -2.4173   18.3960   42.8798 S.3       1 <1>        -0.0235 
     16 C16        -3.6107   19.7660   42.7406 C.3       1 <1>         0.1145 
     17 C17        -3.2674   20.5281   41.4804 C.2       1 <1>         0.2466 
     18 O18        -3.5165   19.9953   40.4120 O.2       1 <1>        -0.3693 
     19 O19        -2.7089   21.7544   41.4385 O.3       1 <1>        -0.2764 
     20 C20        -2.3165   22.4073   42.6629 C.3       1 <1>         0.0740 
     21 C21        -1.0558   21.7809   43.3149 C.3       1 <1>        -0.0371 
     22 H1         -9.4244   19.5737   50.4954 H         1 <1>         0.2523 
     23 H2         -6.6880   16.0464   50.0060 H         1 <1>         0.0507 
     24 H3         -4.8678   15.7469   48.3928 H         1 <1>         0.0549 
     25 H4         -6.2931   19.1223   46.1407 H         1 <1>         0.0549 
     26 H5         -8.1264   19.4266   47.7523 H         1 <1>         0.0507 
     27 H6         -3.1459   15.5319   46.7038 H         1 <1>         0.0828 
     28 H7         -1.8052   16.1332   44.6360 H         1 <1>         0.2396 
     29 H8         -4.6097   19.3267   42.5983 H         1 <1>         0.0664 
     30 H9         -3.6378   20.3483   43.6687 H         1 <1>         0.0664 
     31 H10        -3.1469   22.5484   43.3721 H         1 <1>         0.0610 
     32 H11        -2.0238   23.4170   42.3309 H         1 <1>         0.0610 
     33 H12        -0.2664   21.6675   42.5556 H         1 <1>         0.0255 
     34 H13        -1.2566   20.7969   43.7559 H         1 <1>         0.0255 
     35 H14        -0.6816   22.4385   44.1155 H         1 <1>         0.0255 
@<TRIPOS>BOND
     1    2    1 2    
     2    1    3 1    
     3    1    4 1    
     4    4    5 ar   
     5    5    6 ar   
     6    6    7 ar   
     7    7    8 ar   
     8    8    9 ar   
     9    4    9 ar   
    10    7   10 1    
    11   10   11 2    
    12   11   12 1    
    13   12   13 1    
    14   13   14 2    
    15   10   14 1    
    16   13   15 1    
    17   15   16 1    
    18   16   17 1    
    19   17   18 2    
    20   17   19 1    
    21   19   20 1    
    22   20   21 1    
    23    3   22 1    
    24    5   23 1    
    25    6   24 1    
    26    8   25 1    
    27    9   26 1    
    28   11   27 1    
    29   12   28 1    
    30   16   29 1    
    31   16   30 1    
    32   20   31 1    
    33   20   32 1    
    34   21   33 1    
    35   21   34 1    
    36   21   35 1    
@<TRIPOS>SUBSTRUCTURE
     1 ****        2 TEMP              0 ****  ****    0 ROOT 
@<TRIPOS>NORMAL
@<TRIPOS>FF_PBC
FORCE_FIELD_SETUP_FEATURE Force Field Setup information
v1.0  0 0.000000 0.000000 0.000000 0.000000 0.000000 0.000000 NONE 0 0 0 0 1 0 0 0 0 0 0 0 0
