#	Name:			PISM00821
#	Creating user name:	baoopengkun
#	Creation time:		Fri Nov 30 17:53:41 2018

#	Modifying user name:	baoopengkun
#	Modification time:	Fri Nov 30 17:57:09 2018

@<TRIPOS>MOLECULE
PISM00821
   38    39     1     2     0
SMALL
GAST_HUCK


@<TRIPOS>ATOM
      1 C1         -9.4585    5.0917   10.1387 C.ar      1 <1>        -0.0714 
      2 C2         -9.8478    5.3186   11.4625 C.ar      1 <1>        -0.0386 
      3 C3        -10.6430    4.3796   12.1329 C.ar      1 <1>         0.0855 
      4 C4        -11.0470    3.2268   11.4543 C.ar      1 <1>        -0.0386 
      5 C5        -10.6749    3.0082   10.1249 C.ar      1 <1>        -0.0714 
      6 C6         -9.8620    3.9349    9.4640 C.ar      1 <1>        -0.0380 
      7 O7        -11.0517    4.5526   13.4635 O.3       1 <1>        -0.3244 
      8 C8        -10.6692    5.7020   14.2360 C.3       1 <1>         0.0584 
      9 C9         -9.4127    3.7230    8.0332 C.2       1 <1>         0.0758 
     10 C10        -9.4130    4.8468    7.0699 C.2       1 <1>         0.2383 
     11 O11       -10.4719    5.6518    6.8667 O.3       1 <1>        -0.2865 
     12 C12       -11.6885    5.3263    7.5675 C.3       1 <1>         0.0638 
     13 O13        -8.4079    5.0320    6.4046 O.2       1 <1>        -0.3769 
     14 C14        -8.9766    2.5275    7.6145 C.2       1 <1>         0.1006 
     15 O15        -8.9286    1.4931    8.4679 O.3       1 <1>        -0.2533 
     16 C16        -8.3769    0.2851    7.9131 C.3       1 <1>         0.2446 
     17 C17        -6.8970    0.4458    7.6450 C.2       1 <1>         0.0002 
     18 C18        -6.1876   -0.3540    8.4387 C.2       1 <1>         0.0294 
     19 C19        -7.2044   -1.0479    9.2198 C.2       1 <1>         0.2496 
     20 O20        -8.4601   -0.7263    8.9365 O.3       1 <1>        -0.2294 
     21 C21        -4.6927   -0.5011    8.5210 C.3       1 <1>        -0.0323 
     22 O22        -6.9264   -1.8747   10.0710 O.2       1 <1>        -0.3691 
     23 H1         -8.8350    5.8222    9.6320 H         1 <1>         0.0535 
     24 H2         -9.5180    6.2305   11.9447 H         1 <1>         0.0531 
     25 H3        -11.6598    2.4958   11.9714 H         1 <1>         0.0531 
     26 H4        -11.0301    2.1203    9.6126 H         1 <1>         0.0535 
     27 H5        -11.1087    5.5934   15.2384 H         1 <1>         0.0576 
     28 H6        -11.0585    6.6282   13.7860 H         1 <1>         0.0576 
     29 H7         -9.5750    5.7604   14.3419 H         1 <1>         0.0576 
     30 H8        -12.4743    5.9663    7.1403 H         1 <1>         0.0574 
     31 H9        -11.6318    5.5592    8.6398 H         1 <1>         0.0574 
     32 H10       -11.9896    4.2769    7.4203 H         1 <1>         0.0574 
     33 H11        -8.6639    2.4450    6.5701 H         1 <1>         0.1284 
     34 H12        -8.9290   -0.0682    7.0255 H         1 <1>         0.1224 
     35 H13        -6.4614    1.1230    6.9114 H         1 <1>         0.0707 
     36 H14        -4.2065    0.4796    8.4087 H         1 <1>         0.0347 
     37 H15        -4.3455   -1.1702    7.7198 H         1 <1>         0.0347 
     38 H16        -4.4083   -0.9295    9.4938 H         1 <1>         0.0347 
@<TRIPOS>BOND
     1    2    1 ar   
     2    2    3 ar   
     3    3    4 ar   
     4    4    5 ar   
     5    5    6 ar   
     6    1    6 ar   
     7    3    7 1    
     8    7    8 1    
     9    6    9 1    
    10    9   10 1    
    11   10   11 1    
    12   11   12 1    
    13   10   13 2    
    14    9   14 2    
    15   14   15 1    
    16   15   16 1    
    17   16   17 1    
    18   17   18 2    
    19   18   19 1    
    20   19   20 1    
    21   16   20 1    
    22   18   21 1    
    23   19   22 2    
    24    1   23 1    
    25    2   24 1    
    26    4   25 1    
    27    5   26 1    
    28    8   27 1    
    29    8   28 1    
    30    8   29 1    
    31   12   30 1    
    32   12   31 1    
    33   12   32 1    
    34   14   33 1    
    35   16   34 1    
    36   17   35 1    
    37   21   36 1    
    38   21   37 1    
    39   21   38 1    
@<TRIPOS>SUBSTRUCTURE
     1 ****        2 TEMP              0 ****  ****    0 ROOT 
@<TRIPOS>NORMAL
@<TRIPOS>FF_PBC
FORCE_FIELD_SETUP_FEATURE Force Field Setup information
v1.0  0 0.000000 0.000000 0.000000 0.000000 0.000000 0.000000 NONE 0 0 0 0 1 0 0 0 0 0 0 0 0
@<TRIPOS>RENDERING_ATTRS
ANTIALIASED_LINES 
*
