#	Name:			PISM01115
#	Creating user name:	Qinrunwen
#	Creation time:		Tue Apr 02 21:09:37 2019

#	Modifying user name:	Qinrunwen
#	Modification time:	Tue Apr 02 21:16:41 2019

@<TRIPOS>MOLECULE
PISM01115
   60    62     1     1     0
SMALL
GAST_HUCK


@<TRIPOS>ATOM
      1 C1         13.8094   17.7233   -2.8350 C.ar      1 <1>         0.1126 
      2 C2         13.7954   18.8303   -3.6846 C.ar      1 <1>        -0.0295 
      3 C3         13.1926   20.0161   -3.2489 C.ar      1 <1>        -0.0394 
      4 C4         12.6270   20.0525   -1.9703 C.ar      1 <1>         0.0584 
      5 C5         12.2881   18.8420   -1.3589 C.ar      1 <1>        -0.0394 
      6 C6         12.8918   17.6588   -1.7880 C.ar      1 <1>        -0.0295 
      7 C7         12.4603   21.3314   -1.1773 C.2       1 <1>         0.2440 
      8 N8         12.2594   22.5462   -1.7218 N.am      1 <1>        -0.1932 
      9 C9         11.7340   22.9042   -2.9071 C.2       1 <1>         0.2058 
     10 N10        11.0616   22.1910   -3.7047 N.2       1 <1>        -0.3179 
     11 C11        10.4931   22.9028   -4.8214 C.2       1 <1>        -0.0093 
     12 C12        10.8840   24.1847   -4.7891 C.2       1 <1>         0.0002 
     13 S13        11.9246   24.5978   -3.3954 S.3       1 <1>         0.0133 
     14 S14        15.0294   16.4641   -3.0485 S.o2      1 <1>         0.0725 
     15 O15        14.8787   15.4724   -2.0064 O.2       1 <1>        -0.1496 
     16 O16        15.0199   16.0347   -4.4264 O.2       1 <1>        -0.1496 
     17 N17        16.3420   17.4111   -2.7251 N.am      1 <1>        -0.2293 
     18 C18        16.5065   17.9100   -1.3557 C.3       1 <1>         0.0531 
     19 C19        16.3151   19.4481   -1.2731 C.3       1 <1>         0.0643 
     20 C20        17.1940   17.8654   -3.8283 C.3       1 <1>         0.0531 
     21 C21        18.7109   17.9269   -3.5169 C.3       1 <1>         0.0643 
     22 O22        19.3732   18.3441   -4.7286 O.3       1 <1>        -0.3814 
     23 C23        20.7873   18.5795   -4.5872 C.3       1 <1>         0.0365 
     24 O24        16.2404   19.8833    0.1001 O.3       1 <1>        -0.3814 
     25 C25        16.0404   21.3086    0.2265 C.3       1 <1>         0.0365 
     26 O26        12.5848   21.2346    0.0338 O.2       1 <1>        -0.3679 
     27 C27         9.5409   22.3328   -5.8493 C.ar      1 <1>        -0.0389 
     28 C28         8.6960   21.2697   -5.5220 C.ar      1 <1>        -0.0690 
     29 C29         7.6356   20.9357   -6.3686 C.ar      1 <1>        -0.0394 
     30 C30         7.4251   21.6398   -7.5616 C.ar      1 <1>         0.1147 
     31 C31         8.3795   22.5819   -7.9590 C.ar      1 <1>        -0.0394 
     32 C32         9.4483   22.9032   -7.1238 C.ar      1 <1>        -0.0690 
     33 N33         6.3198   21.4250   -8.3180 N.pl3     1 <1>         0.0320 
     34 O34         5.5302   20.5490   -8.0347 O.2       1 <1>        -0.1260 
     35 O35         6.0516   22.2230   -9.4436 O.3       1 <1>        -0.2391 
     36 H1         14.2764   18.7792   -4.6521 H         1 <1>         0.0649 
     37 H2         13.2114   20.8889   -3.8870 H         1 <1>         0.0670 
     38 H3         11.5842   18.8276   -0.5371 H         1 <1>         0.0670 
     39 H4         12.6701   16.7137   -1.3026 H         1 <1>         0.0649 
     40 H5         12.4848   23.3006   -1.1057 H         1 <1>         0.2407 
     41 H6         10.5894   24.9395   -5.5156 H         1 <1>         0.0589 
     42 H7         17.4980   17.6355   -0.9652 H         1 <1>         0.0501 
     43 H8         15.7620   17.4522   -0.6861 H         1 <1>         0.0501 
     44 H9         15.3738   19.7097   -1.7709 H         1 <1>         0.0576 
     45 H10        17.1359   19.9671   -1.7900 H         1 <1>         0.0576 
     46 H11        16.8734   18.8717   -4.1405 H         1 <1>         0.0501 
     47 H12        17.1069   17.1925   -4.6970 H         1 <1>         0.0501 
     48 H13        19.0705   16.9312   -3.2101 H         1 <1>         0.0576 
     49 H14        18.9202   18.6468   -2.7148 H         1 <1>         0.0576 
     50 H15        21.3086   17.6919   -4.1944 H         1 <1>         0.0523 
     51 H16        20.9770   19.4431   -3.9282 H         1 <1>         0.0523 
     52 H17        21.1796   18.8100   -5.5926 H         1 <1>         0.0523 
     53 H18        15.1089   21.6305   -0.2675 H         1 <1>         0.0523 
     54 H19        16.8850   21.8722   -0.2003 H         1 <1>         0.0523 
     55 H20        15.9637   21.5523    1.2967 H         1 <1>         0.0523 
     56 H21         8.8495   20.7240   -4.5971 H         1 <1>         0.0569 
     57 H22         6.9682   20.1346   -6.0807 H         1 <1>         0.0512 
     58 H23         8.2986   23.0752   -8.9185 H         1 <1>         0.0512 
     59 H24        10.1988   23.6041   -7.4675 H         1 <1>         0.0569 
     60 H25         5.2355   22.6989   -9.3273 H         1 <1>         0.2525 
@<TRIPOS>BOND
     1    2    1 ar   
     2    2    3 ar   
     3    3    4 ar   
     4    4    5 ar   
     5    5    6 ar   
     6    1    6 ar   
     7    4    7 1    
     8    7    8 am   
     9    8    9 am   
    10    9   10 2    
    11   10   11 1    
    12   11   12 2    
    13   12   13 1    
    14    9   13 1    
    15    1   14 1    
    16   14   15 2    
    17   14   16 2    
    18   14   17 1    
    19   17   18 1    
    20   18   19 1    
    21   17   20 1    
    22   20   21 1    
    23   21   22 1    
    24   22   23 1    
    25   19   24 1    
    26   24   25 1    
    27    7   26 2    
    28   11   27 1    
    29   27   28 ar   
    30   28   29 ar   
    31   29   30 ar   
    32   30   31 ar   
    33   31   32 ar   
    34   27   32 ar   
    35   30   33 1    
    36   33   34 2    
    37   33   35 1    
    38    2   36 1    
    39    3   37 1    
    40    5   38 1    
    41    6   39 1    
    42    8   40 1    
    43   12   41 1    
    44   18   42 1    
    45   18   43 1    
    46   19   44 1    
    47   19   45 1    
    48   20   46 1    
    49   20   47 1    
    50   21   48 1    
    51   21   49 1    
    52   23   50 1    
    53   23   51 1    
    54   23   52 1    
    55   25   53 1    
    56   25   54 1    
    57   25   55 1    
    58   28   56 1    
    59   29   57 1    
    60   31   58 1    
    61   32   59 1    
    62   35   60 1    
@<TRIPOS>SUBSTRUCTURE
     1 ****        2 TEMP              0 ****  ****    0 ROOT 
@<TRIPOS>NORMAL
@<TRIPOS>FF_PBC
FORCE_FIELD_SETUP_FEATURE Force Field Setup information
v1.0  0 0.000000 0.000000 0.000000 0.000000 0.000000 0.000000 NONE 0 0 0 0 1 0 0 0 0 0 0 0 0
