#	Name:			PISM00737
#	Creating user name:	baoopengkun
#	Creation time:		Sun Jan 20 22:20:31 2019

#	Modifying user name:	baoopengkun
#	Modification time:	Sun Jan 20 22:23:11 2019

@<TRIPOS>MOLECULE
PISM00737
   88    91     1     1     0
SMALL
GAST_HUCK


@<TRIPOS>ATOM
      1 C1          1.7075    1.0751    3.4859 C.3       1 <1>        -0.0163 
      2 C2          1.2669   -0.2314    4.2055 C.3       1 <1>         0.0819 
      3 C3          2.4910   -1.0651    4.6717 C.3       1 <1>         0.0835 
      4 C4          3.4268   -0.2089    5.5694 C.3       1 <1>        -0.0028 
      5 C5          3.8745    1.0531    4.7780 C.3       1 <1>         0.0681 
      6 C6          2.6775    1.9631    4.3276 C.3       1 <1>        -0.0055 
      7 C7          3.2149    3.1921    3.4881 C.3       1 <1>        -0.0276 
      8 C8          4.4363    2.8348    2.5807 C.3       1 <1>        -0.0063 
      9 C9          5.7500    2.7248    3.4310 C.3       1 <1>         0.0801 
     10 O10         5.6507    2.7939    4.8758 O.3       1 <1>        -0.2763 
     11 C11         4.8813    1.8958    5.5174 C.2       1 <1>         0.2374 
     12 O12         4.9935    1.7822    6.7264 O.2       1 <1>        -0.3701 
     13 C13         2.1374    3.9597    2.6610 C.3       1 <1>        -0.0487 
     14 C14         2.6854    5.3178    2.1104 C.3       1 <1>        -0.0468 
     15 C15         4.1446    5.2504    1.5341 C.3       1 <1>        -0.0257 
     16 C16         4.4895    3.7531    1.3115 C.3       1 <1>        -0.0298 
     17 C17         5.7531    3.7349    0.4206 C.3       1 <1>        -0.0491 
     18 C18         5.5516    4.9881   -0.4802 C.3       1 <1>        -0.0491 
     19 C19         4.3127    5.7764    0.0634 C.3       1 <1>        -0.0303 
     20 O20         0.4444   -1.0201    3.3272 O.3       1 <1>        -0.3892 
     21 O21         3.1831   -1.5125    3.4892 O.3       1 <1>        -0.3891 
     22 C22         7.3937    8.8165   -2.8139 C.3       1 <1>        -0.0417 
     23 C23         1.9232    2.5295    5.5825 C.3       1 <1>        -0.0568 
     24 C24         5.1625    5.9570    2.4870 C.3       1 <1>        -0.0590 
     25 C25         4.4030    7.3249   -0.1923 C.3       1 <1>        -0.0118 
     26 C26         4.5093    7.6331   -1.7262 C.3       1 <1>         0.0874 
     27 C27         4.8976    9.1264   -2.0603 C.3       1 <1>         0.0874 
     28 C28         5.9302    9.1965   -3.2491 C.3       1 <1>        -0.0128 
     29 C29         3.6024   11.2124   -1.8549 C.3       1 <1>         0.0369 
     30 C30         8.1695    9.9678   -2.1097 C.3       1 <1>        -0.0623 
     31 C31         8.2461    8.2775   -4.0012 C.3       1 <1>        -0.0623 
     32 C32         3.1765    8.0804    0.3966 C.3       1 <1>        -0.0597 
     33 O33         3.2509    7.1835   -2.2852 O.3       1 <1>        -0.3769 
     34 O34         3.6681    9.8483   -2.3339 O.3       1 <1>        -0.3769 
     35 C35         5.8869   10.5171   -4.0740 C.3       1 <1>        -0.0597 
     36 C36         3.1715    7.1741   -3.7218 C.3       1 <1>         0.0369 
     37 H1          0.7890    1.6279    3.2367 H         1 <1>         0.0298 
     38 H2          2.1940    0.7919    2.5419 H         1 <1>         0.0298 
     39 H3          0.6233   -0.0006    5.0692 H         1 <1>         0.0619 
     40 H4          2.1195   -1.9419    5.2326 H         1 <1>         0.0621 
     41 H5          4.3130   -0.8111    5.8317 H         1 <1>         0.0319 
     42 H6          2.9359    0.0419    6.5200 H         1 <1>         0.0319 
     43 H7          4.4025    0.5964    3.9336 H         1 <1>         0.0560 
     44 H8          3.5702    3.9472    4.2051 H         1 <1>         0.0311 
     45 H9          4.2668    1.8466    2.1231 H         1 <1>         0.0332 
     46 H10         6.3975    3.5864    3.2399 H         1 <1>         0.0616 
     47 H11         6.3375    1.8368    3.1444 H         1 <1>         0.0616 
     48 H12         1.2460    4.1902    3.2624 H         1 <1>         0.0268 
     49 H13         1.7895    3.3254    1.8312 H         1 <1>         0.0268 
     50 H14         2.6504    6.0503    2.9332 H         1 <1>         0.0271 
     51 H15         1.9714    5.6614    1.3462 H         1 <1>         0.0271 
     52 H16         3.7134    3.3736    0.6178 H         1 <1>         0.0310 
     53 H17         5.8329    2.7974   -0.1571 H         1 <1>         0.0268 
     54 H18         6.6822    3.8364    0.9984 H         1 <1>         0.0268 
     55 H19         5.3872    4.6709   -1.5242 H         1 <1>         0.0268 
     56 H20         6.4627    5.6075   -0.4530 H         1 <1>         0.0268 
     57 H21         3.4339    5.4270   -0.5070 H         1 <1>         0.0310 
     58 H22         0.9347   -1.3315    2.5718 H         1 <1>         0.2099 
     59 H23         3.9277   -2.0763    3.6773 H         1 <1>         0.2099 
     60 H24         7.3430    7.9926   -2.0818 H         1 <1>         0.0299 
     61 H25         1.0723    3.1582    5.2900 H         1 <1>         0.0237 
     62 H26         2.5951    3.1452    6.2000 H         1 <1>         0.0237 
     63 H27         1.5084    1.7614    6.2438 H         1 <1>         0.0237 
     64 H28         5.1278    5.5419    3.5007 H         1 <1>         0.0235 
     65 H29         4.9332    7.0246    2.5907 H         1 <1>         0.0235 
     66 H30         6.1954    5.8859    2.1212 H         1 <1>         0.0235 
     67 H31         5.3195    7.6918    0.2968 H         1 <1>         0.0327 
     68 H32         5.2864    6.9727   -2.1282 H         1 <1>         0.0624 
     69 H33         5.3854    9.5574   -1.1735 H         1 <1>         0.0624 
     70 H34         5.6057    8.4379   -3.9759 H         1 <1>         0.0326 
     71 H35         2.6374   11.6170   -2.1925 H         1 <1>         0.0524 
     72 H36         4.3915   11.8654   -2.2426 H         1 <1>         0.0524 
     73 H37         3.6265   11.2697   -0.7575 H         1 <1>         0.0524 
     74 H38         9.1118    9.5839   -1.6878 H         1 <1>         0.0232 
     75 H39         7.5871   10.4075   -1.2876 H         1 <1>         0.0232 
     76 H40         8.4298   10.7642   -2.8221 H         1 <1>         0.0232 
     77 H41         7.7446    7.4280   -4.4903 H         1 <1>         0.0232 
     78 H42         9.2237    7.9251   -3.6365 H         1 <1>         0.0232 
     79 H43         8.4304    9.0569   -4.7548 H         1 <1>         0.0232 
     80 H44         2.2420    7.7224   -0.0588 H         1 <1>         0.0233 
     81 H45         3.2569    9.1539    0.1994 H         1 <1>         0.0233 
     82 H46         3.0969    7.9686    1.4836 H         1 <1>         0.0233 
     83 H47         4.8605   10.7245   -4.4149 H         1 <1>         0.0233 
     84 H48         6.5133   10.4396   -4.9748 H         1 <1>         0.0233 
     85 H49         6.2468   11.3766   -3.4934 H         1 <1>         0.0233 
     86 H50         2.1959    6.7366   -3.9789 H         1 <1>         0.0524 
     87 H51         3.9570    6.5437   -4.1659 H         1 <1>         0.0524 
     88 H52         3.2109    8.1853   -4.1517 H         1 <1>         0.0524 
@<TRIPOS>BOND
     1    1    2 1    
     2    2    3 1    
     3    4    3 1    
     4    5    4 1    
     5    6    5 1    
     6    6    1 1    
     7    7    6 1    
     8    8    7 1    
     9    8    9 1    
    10    9   10 1    
    11   10   11 1    
    12   11   12 2    
    13   11    5 1    
    14   13    7 1    
    15   14   13 1    
    16   15   14 1    
    17   15   16 1    
    18   16    8 1    
    19   16   17 1    
    20   18   17 1    
    21   19   18 1    
    22   19   15 1    
    23    2   20 1    
    24    3   21 1    
    25   28   22 1    
    26    6   23 1    
    27   15   24 1    
    28   25   19 1    
    29   26   25 1    
    30   27   26 1    
    31   27   28 1    
    32   34   29 1    
    33   22   30 1    
    34   22   31 1    
    35   25   32 1    
    36   26   33 1    
    37   27   34 1    
    38   28   35 1    
    39   33   36 1    
    40    1   37 1    
    41    1   38 1    
    42    2   39 1    
    43    3   40 1    
    44    4   41 1    
    45    4   42 1    
    46    5   43 1    
    47    7   44 1    
    48    8   45 1    
    49    9   46 1    
    50    9   47 1    
    51   13   48 1    
    52   13   49 1    
    53   14   50 1    
    54   14   51 1    
    55   16   52 1    
    56   17   53 1    
    57   17   54 1    
    58   18   55 1    
    59   18   56 1    
    60   19   57 1    
    61   20   58 1    
    62   21   59 1    
    63   22   60 1    
    64   23   61 1    
    65   23   62 1    
    66   23   63 1    
    67   24   64 1    
    68   24   65 1    
    69   24   66 1    
    70   25   67 1    
    71   26   68 1    
    72   27   69 1    
    73   28   70 1    
    74   29   71 1    
    75   29   72 1    
    76   29   73 1    
    77   30   74 1    
    78   30   75 1    
    79   30   76 1    
    80   31   77 1    
    81   31   78 1    
    82   31   79 1    
    83   32   80 1    
    84   32   81 1    
    85   32   82 1    
    86   35   83 1    
    87   35   84 1    
    88   35   85 1    
    89   36   86 1    
    90   36   87 1    
    91   36   88 1    
@<TRIPOS>SUBSTRUCTURE
     1 ****        2 TEMP              0 ****  ****    0 ROOT 
@<TRIPOS>NORMAL
@<TRIPOS>FF_PBC
FORCE_FIELD_SETUP_FEATURE Force Field Setup information
v1.0  0 0.000000 0.000000 0.000000 0.000000 0.000000 0.000000 NONE 0 0 0 0 1 0 0 0 0 0 0 0 0
