#	Name:			PISM00305
#	Creating user name:	malab
#	Creation time:		Fri Apr 05 16:46:34 2019

#	Modifying user name:	malab
#	Modification time:	Fri Apr 05 16:46:54 2019

@<TRIPOS>MOLECULE
PISM00305
   40    42     1     1     0
SMALL
GAST_HUCK


@<TRIPOS>ATOM
      1 C1         -9.7367   17.2169   45.9641 C.ar      1 <1>        -0.0371 
      2 C2        -10.7916   17.6482   46.7773 C.ar      1 <1>         0.0840 
      3 C3        -10.6695   17.5512   48.1655 C.ar      1 <1>        -0.0288 
      4 C4         -9.5072   17.0348   48.7494 C.ar      1 <1>        -0.0382 
      5 C5         -8.4595   16.5933   47.9333 C.ar      1 <1>        -0.0095 
      6 C6         -8.5780   16.6911   46.5425 C.ar      1 <1>        -0.0649 
      7 O7        -11.9665   18.1743   46.2310 O.3       1 <1>        -0.3329 
      8 C8         -9.3798   16.9522   50.2747 C.3       1 <1>        -0.0148 
      9 C9         -7.8999   17.1276   50.7023 C.3       1 <1>        -0.0229 
     10 C10        -7.0281   16.0239   50.0477 C.3       1 <1>        -0.0027 
     11 C11        -7.2062   16.0086   48.5493 C.2       1 <1>         0.0364 
     12 C12        -7.7636   17.0922   52.2493 C.3       1 <1>        -0.0586 
     13 N13        -6.3234   15.5012   47.7816 N.2       1 <1>        -0.2218 
     14 N14        -5.1931   14.8931   48.2156 N.pl3     1 <1>        -0.1967 
     15 C15        -4.0715   15.0620   47.5678 C.2       1 <1>         0.2358 
     16 O16        -4.0205   15.7631   46.5700 O.2       1 <1>        -0.3677 
     17 C17        -2.7761   14.4017   47.9990 C.ar      1 <1>         0.0541 
     18 C18        -2.4967   14.1097   49.3407 C.ar      1 <1>        -0.0454 
     19 C19        -1.3158   13.4480   49.6918 C.ar      1 <1>        -0.0579 
     20 C20        -0.3826   13.1119   48.7076 C.ar      1 <1>        -0.0238 
     21 C21        -0.6342   13.4396   47.3738 C.ar      1 <1>         0.1379 
     22 C22        -1.8245   14.0813   47.0235 C.ar      1 <1>        -0.0079 
     23 F23         0.2601   13.1384   46.4361 F         1 <1>        -0.1823 
     24 H1         -9.8074   17.2858   44.8834 H         1 <1>         0.0498 
     25 H2        -11.4938   17.8827   48.7876 H         1 <1>         0.0485 
     26 H3         -7.7670   16.3585   45.9018 H         1 <1>         0.0589 
     27 H4        -11.9782   18.2051   45.2812 H         1 <1>         0.2493 
     28 H5         -9.7626   15.9724   50.5999 H         1 <1>         0.0439 
     29 H6         -9.9894   17.7397   50.7462 H         1 <1>         0.0439 
     30 H7         -7.5503   18.1117   50.3414 H         1 <1>         0.0344 
     31 H8         -7.3104   15.0346   50.4394 H         1 <1>         0.0444 
     32 H9         -5.9741   16.2212   50.3003 H         1 <1>         0.0444 
     33 H10        -6.7121   17.2308   52.5454 H         1 <1>         0.0236 
     34 H11        -8.1157   16.1276   52.6460 H         1 <1>         0.0236 
     35 H12        -8.3599   17.8974   52.7060 H         1 <1>         0.0236 
     36 H13        -5.2332   14.2599   49.0247 H         1 <1>         0.2225 
     37 H14        -3.1835   14.4017   50.1274 H         1 <1>         0.0635 
     38 H15        -1.1206   13.1974   50.7304 H         1 <1>         0.0619 
     39 H16         0.5366   12.5997   48.9723 H         1 <1>         0.0640 
     40 H17        -2.0027   14.3247   45.9813 H         1 <1>         0.0656 
@<TRIPOS>BOND
     1    2    1 ar   
     2    2    3 ar   
     3    3    4 ar   
     4    4    5 ar   
     5    5    6 ar   
     6    1    6 ar   
     7    2    7 1    
     8    4    8 1    
     9    8    9 1    
    10    9   10 1    
    11   10   11 1    
    12    5   11 1    
    13    9   12 1    
    14   11   13 2    
    15   13   14 1    
    16   14   15 1    
    17   15   16 2    
    18   15   17 1    
    19   17   18 ar   
    20   18   19 ar   
    21   19   20 ar   
    22   20   21 ar   
    23   21   22 ar   
    24   17   22 ar   
    25   21   23 1    
    26    1   24 1    
    27    3   25 1    
    28    6   26 1    
    29    7   27 1    
    30    8   28 1    
    31    8   29 1    
    32    9   30 1    
    33   10   31 1    
    34   10   32 1    
    35   12   33 1    
    36   12   34 1    
    37   12   35 1    
    38   14   36 1    
    39   18   37 1    
    40   19   38 1    
    41   20   39 1    
    42   22   40 1    
@<TRIPOS>SUBSTRUCTURE
     1 ****        2 TEMP              0 ****  ****    0 ROOT 
@<TRIPOS>NORMAL
@<TRIPOS>FF_PBC
FORCE_FIELD_SETUP_FEATURE Force Field Setup information
v1.0  0 0.000000 0.000000 0.000000 0.000000 0.000000 0.000000 NONE 0 0 0 0 1 0 0 0 0 0 0 0 0
