#	Name:			PISM00950.1
#	Creating user name:	baoopengkun
#	Creation time:		Thu Dec 13 10:03:18 2018

#	Modifying user name:	baoopengkun
#	Modification time:	Thu Dec 13 10:08:15 2018

@<TRIPOS>MOLECULE
PISM00950.1
   50    53     1     1     0
SMALL
GAST_HUCK


@<TRIPOS>ATOM
      1 C1        -13.8069    7.1484   -4.1402 C.ar      1 <1>         0.0196 
      2 C2        -12.9855    7.0079   -5.2627 C.ar      1 <1>         0.1540 
      3 C3        -11.6298    6.7219   -5.0928 C.ar      1 <1>         0.0056 
      4 C4        -11.0965    6.5900   -3.8079 C.ar      1 <1>        -0.0413 
      5 C5        -11.9162    6.7237   -2.6805 C.ar      1 <1>         0.0046 
      6 C6        -13.2729    7.0280   -2.8542 C.ar      1 <1>         0.0637 
      7 O7        -13.5050    7.1483   -6.5504 O.3       1 <1>        -0.2325 
      8 Cl8       -14.3365    7.2694   -1.4806 Cl        1 <1>        -0.0455 
      9 C9        -11.3259    6.5273   -1.2758 C.3       1 <1>         0.1778 
     10 C10       -11.0200    7.9130   -0.6447 C.3       1 <1>         0.0996 
     11 N11       -10.7662    7.8706    0.7874 N.pl3     1 <1>        -0.1835 
     12 N12        -9.6031    8.1901    1.4218 N.2       1 <1>        -0.1910 
     13 C13        -9.6767    8.0693    2.6953 C.2       1 <1>         0.0618 
     14 N14       -11.0380    7.6345    2.8477 N.2       1 <1>        -0.2870 
     15 C15       -11.5989    7.5465    1.7284 C.2       1 <1>         0.1268 
     16 O16       -12.2233    5.7600   -0.4532 O.3       1 <1>        -0.3895 
     17 C17       -11.4982    4.6775    0.1511 C.3       1 <1>         0.0700 
     18 C18       -10.0178    5.0138   -0.1269 C.3       1 <1>         0.0616 
     19 O19       -10.1481    5.7104   -1.3644 O.3       1 <1>        -0.3922 
     20 C20       -11.9505    3.3300   -0.4789 C.3       1 <1>        -0.0259 
     21 C21       -11.8240    3.2818   -2.0270 C.3       1 <1>        -0.0535 
     22 C22       -12.2910    1.9126   -2.5865 C.3       1 <1>        -0.0652 
     23 C23       -14.3325    8.2543   -6.7538 C.ar      1 <1>         0.1286 
     24 C24       -15.5356    8.0957   -7.4466 C.ar      1 <1>        -0.0245 
     25 C25       -16.3849    9.1890   -7.6415 C.ar      1 <1>        -0.0540 
     26 C26       -16.0286   10.4461   -7.1455 C.ar      1 <1>         0.0308 
     27 C27       -14.8197   10.6104   -6.4638 C.ar      1 <1>        -0.0540 
     28 C28       -13.9681    9.5178   -6.2749 C.ar      1 <1>        -0.0245 
     29 Cl29      -17.0961   11.8151   -7.3788 Cl        1 <1>        -0.0790 
     30 H1        -14.8652    7.3509   -4.2640 H         1 <1>         0.0663 
     31 H2        -10.9942    6.6046   -5.9645 H         1 <1>         0.0661 
     32 H3        -10.0372    6.3815   -3.6947 H         1 <1>         0.0820 
     33 H4        -11.8733    8.5900   -0.7972 H         1 <1>         0.0569 
     34 H5        -10.1440    8.3419   -1.1536 H         1 <1>         0.0569 
     35 H6         -8.9153    8.2486    3.4528 H         1 <1>         0.0863 
     36 H7        -12.6348    7.2417    1.5824 H         1 <1>         0.1361 
     37 H8        -11.6937    4.6477    1.2364 H         1 <1>         0.0606 
     38 H9         -9.3675    4.1309   -0.2164 H         1 <1>         0.0572 
     39 H10        -9.6031    5.6798    0.6443 H         1 <1>         0.0572 
     40 H11       -13.0078    3.1706   -0.2110 H         1 <1>         0.0290 
     41 H12       -11.3588    2.5129   -0.0354 H         1 <1>         0.0290 
     42 H13       -10.7781    3.4455   -2.3321 H         1 <1>         0.0263 
     43 H14       -12.4464    4.0734   -2.4732 H         1 <1>         0.0263 
     44 H15       -12.2003    1.9010   -3.6843 H         1 <1>         0.0230 
     45 H16       -13.3433    1.7265   -2.3206 H         1 <1>         0.0230 
     46 H17       -11.6731    1.0989   -2.1758 H         1 <1>         0.0230 
     47 H18       -15.8075    7.1182   -7.8312 H         1 <1>         0.0567 
     48 H19       -17.3206    9.0639   -8.1768 H         1 <1>         0.0601 
     49 H20       -14.5435   11.5885   -6.0828 H         1 <1>         0.0601 
     50 H21       -13.0237    9.6547   -5.7584 H         1 <1>         0.0567 
@<TRIPOS>BOND
     1    2    1 ar   
     2    2    3 ar   
     3    3    4 ar   
     4    4    5 ar   
     5    5    6 ar   
     6    1    6 ar   
     7    2    7 1    
     8    6    8 1    
     9    5    9 1    
    10    9   10 1    
    11   10   11 1    
    12   11   12 1    
    13   12   13 2    
    14   13   14 1    
    15   14   15 2    
    16   11   15 1    
    17    9   16 1    
    18   16   17 1    
    19   17   18 1    
    20   18   19 1    
    21    9   19 1    
    22   17   20 1    
    23   20   21 1    
    24   21   22 1    
    25    7   23 1    
    26   23   24 ar   
    27   24   25 ar   
    28   25   26 ar   
    29   26   27 ar   
    30   27   28 ar   
    31   23   28 ar   
    32   26   29 1    
    33    1   30 1    
    34    3   31 1    
    35    4   32 1    
    36   10   33 1    
    37   10   34 1    
    38   13   35 1    
    39   15   36 1    
    40   17   37 1    
    41   18   38 1    
    42   18   39 1    
    43   20   40 1    
    44   20   41 1    
    45   21   42 1    
    46   21   43 1    
    47   22   44 1    
    48   22   45 1    
    49   22   46 1    
    50   24   47 1    
    51   25   48 1    
    52   27   49 1    
    53   28   50 1    
@<TRIPOS>SUBSTRUCTURE
     1 ****        2 TEMP              0 ****  ****    0 ROOT 
@<TRIPOS>NORMAL
@<TRIPOS>FF_PBC
FORCE_FIELD_SETUP_FEATURE Force Field Setup information
v1.0  0 0.000000 0.000000 0.000000 0.000000 0.000000 0.000000 NONE 0 0 0 0 1 0 0 0 0 0 0 0 0
