#	Name:			PISM00190.3
#	Creating user name:	14062
#	Creation time:		Fri Jul 12 13:37:48 2019

#	Modifying user name:	14062
#	Modification time:	Fri Jul 12 13:40:58 2019

@<TRIPOS>MOLECULE
PISM00190.3
   57    58     1     1     0
SMALL
GAST_HUCK


@<TRIPOS>ATOM
      1 C1         -4.0883    2.8188    0.6048 C.ar      1 <1>        -0.0768 
      2 C2         -3.1306    2.3064    1.4947 C.ar      1 <1>        -0.0748 
      3 C3         -1.8419    2.8528    1.5699 C.ar      1 <1>        -0.0467 
      4 C4         -1.5468    3.9217    0.7237 C.ar      1 <1>         0.0450 
      5 C5         -2.4995    4.4210   -0.1404 C.ar      1 <1>        -0.0185 
      6 C6         -3.7879    3.8982   -0.2358 C.ar      1 <1>        -0.0716 
      7 C7         -1.7395    5.5346   -0.8036 C.2       1 <1>        -0.0224 
      8 C8         -0.5046    5.5316   -0.2716 C.2       1 <1>         0.0040 
      9 N9         -0.3032    4.5830    0.6582 N.3       1 <1>        -0.2350 
     10 C10        -2.3054    6.4483   -1.8614 C.3       1 <1>         0.0784 
     11 C11        -1.4858    7.7217   -1.9179 C.2       1 <1>         0.2403 
     12 O12        -0.7822    7.9898   -2.8761 O.2       1 <1>        -0.3685 
     13 O13        -1.5205    8.5670   -0.8820 O.3       1 <1>        -0.2916 
     14 C14        -2.3457    5.6806   -3.2125 C.3       1 <1>        -0.0271 
     15 C15        -3.9991    5.6394   -8.0695 C.3       1 <1>        -0.0328 
     16 C16        -4.7409    6.4266   -9.1805 C.3       1 <1>         0.0328 
     17 N17        -4.7708    5.6211  -10.3995 N.am      1 <1>        -0.2625 
     18 C18        -5.6923    4.6461  -10.5453 C.2       1 <1>         0.3200 
     19 O19        -6.5439    4.4003   -9.7084 O.2       1 <1>        -0.3775 
     20 O20        -5.5487    3.9970  -11.7094 O.3       1 <1>        -0.2581 
     21 C21        -6.4833    2.9284  -11.9878 C.3       1 <1>         0.0905 
     22 C22        -6.3679    1.7570  -10.9690 C.3       1 <1>        -0.0320 
     23 C23        -6.0325    2.4127  -13.3840 C.3       1 <1>        -0.0320 
     24 C24        -7.9494    3.4389  -12.1010 C.3       1 <1>        -0.0320 
     25 H1         -5.0775    2.3727    0.5665 H         1 <1>         0.0524 
     26 C26        -3.1265    6.4586   -4.3086 C.3       1 <1>        -0.0495 
     27 H2         -3.3920    1.4712    2.1373 H         1 <1>         0.0543 
     28 H3         -1.0988    2.4639    2.2577 H         1 <1>         0.0548 
     29 C29        -3.1705    5.6623   -5.6418 C.3       1 <1>        -0.0527 
     30 H4         -4.5169    4.3086   -0.9260 H         1 <1>         0.0551 
     31 C31        -3.9352    6.4458   -6.7436 C.3       1 <1>        -0.0512 
     32 H5          0.2768    6.2358   -0.5620 H         1 <1>         0.0760 
     33 H6          0.4548    3.8898    0.3182 H         1 <1>         0.1886 
     34 H7         -3.3342    6.7118   -1.5699 H         1 <1>         0.0644 
     35 H8         -2.0692    8.2877   -0.1593 H         1 <1>         0.2540 
     36 H9         -2.8428    4.7083   -3.0593 H         1 <1>         0.0308 
     37 H10        -1.3141    5.4846   -3.5478 H         1 <1>         0.0308 
     38 H11        -4.5217    4.6848   -7.8941 H         1 <1>         0.0284 
     39 H12        -2.9784    5.4131   -8.4183 H         1 <1>         0.0284 
     40 H13        -4.2180    7.3799   -9.3675 H         1 <1>         0.0519 
     41 H14        -5.7650    6.6709   -8.8519 H         1 <1>         0.0519 
     42 H15        -4.0771    5.7733  -11.1059 H         1 <1>         0.1867 
     43 H16        -6.9441    0.8879  -11.3211 H         1 <1>         0.0260 
     44 H17        -6.7513    2.0264   -9.9754 H         1 <1>         0.0260 
     45 H18        -5.3136    1.4596  -10.8630 H         1 <1>         0.0260 
     46 H19        -6.6669    1.5822  -13.7301 H         1 <1>         0.0260 
     47 H20        -4.9905    2.0601  -13.3399 H         1 <1>         0.0260 
     48 H21        -6.0879    3.2255  -14.1246 H         1 <1>         0.0260 
     49 H22        -7.9892    4.3059  -12.7778 H         1 <1>         0.0260 
     50 H23        -8.3634    3.7413  -11.1294 H         1 <1>         0.0260 
     51 H24        -8.5986    2.6475  -12.5054 H         1 <1>         0.0260 
     52 H25        -2.6498    7.4347   -4.4903 H         1 <1>         0.0268 
     53 H26        -4.1575    6.6400   -3.9627 H         1 <1>         0.0268 
     54 H27        -3.6677    4.6929   -5.4722 H         1 <1>         0.0265 
     55 H28        -2.1406    5.4670   -5.9836 H         1 <1>         0.0265 
     56 H29        -4.9607    6.6563   -6.3978 H         1 <1>         0.0266 
     57 H30        -3.4273    7.4074   -6.9248 H         1 <1>         0.0266 
@<TRIPOS>BOND
     1    1    2 ar   
     2    3    2 ar   
     3    4    3 ar   
     4    5    4 ar   
     5    5    6 ar   
     6    6    1 ar   
     7    7    5 1    
     8    7    8 2    
     9    8    9 1    
    10    9    4 1    
    11   10    7 1    
    12   10   11 1    
    13   11   12 2    
    14   11   13 1    
    15   14   10 1    
    16   31   15 1    
    17   15   16 1    
    18   16   17 1    
    19   17   18 am   
    20   18   19 2    
    21   18   20 1    
    22   20   21 1    
    23   21   22 1    
    24   21   23 1    
    25   21   24 1    
    26    1   25 1    
    27   26   14 1    
    28    2   27 1    
    29    3   28 1    
    30   29   26 1    
    31    6   30 1    
    32   29   31 1    
    33    8   32 1    
    34    9   33 1    
    35   10   34 1    
    36   13   35 1    
    37   14   36 1    
    38   14   37 1    
    39   15   38 1    
    40   15   39 1    
    41   16   40 1    
    42   16   41 1    
    43   17   42 1    
    44   22   43 1    
    45   22   44 1    
    46   22   45 1    
    47   23   46 1    
    48   23   47 1    
    49   23   48 1    
    50   24   49 1    
    51   24   50 1    
    52   24   51 1    
    53   26   52 1    
    54   26   53 1    
    55   29   54 1    
    56   29   55 1    
    57   31   56 1    
    58   31   57 1    
@<TRIPOS>SUBSTRUCTURE
     1 ****        2 TEMP              0 ****  ****    0 ROOT 
@<TRIPOS>NORMAL
@<TRIPOS>FF_PBC
FORCE_FIELD_SETUP_FEATURE Force Field Setup information
v1.0  0 0.000000 0.000000 0.000000 0.000000 0.000000 0.000000 NONE 0 0 0 0 1 0 0 0 0 0 0 0 0
