#	Name:			PISM00373
#	Creating user name:	baoopengkun
#	Creation time:		Sun Mar 31 15:50:24 2019

#	Modifying user name:	baoopengkun
#	Modification time:	Sun Mar 31 15:55:15 2019

@<TRIPOS>MOLECULE
PISM00373
   53    53     1     1     0
SMALL
GAST_HUCK


@<TRIPOS>ATOM
      1 C1         -5.0344    2.3984   -0.2453 C.3       1 <1>        -0.0473 
      2 C2         -2.7135    4.9993    2.8602 C.3       1 <1>        -0.0740 
      3 C3         -4.7560    6.4408    2.9522 C.3       1 <1>        -0.0740 
      4 C4         -4.9178    4.0550    3.7520 C.3       1 <1>        -0.0150 
      5 C5         -4.2654    4.9817    2.6863 C.3       1 <1>        -0.0599 
      6 O6         -3.0828    2.2874    3.9183 O.3       1 <1>        -0.3508 
      7 C7         -4.4645    2.5755    3.6199 C.3       1 <1>         0.1149 
      8 C8         -4.6471    2.1278    2.1946 C.2       1 <1>        -0.0120 
      9 C9         -4.7685    2.9532    1.1443 C.2       1 <1>        -0.0800 
     10 C10        -4.6933    4.4670    1.2634 C.3       1 <1>         0.0164 
     11 C11        -2.6924    2.4311    5.2973 C.3       1 <1>         0.0534 
     12 C12        -1.1674    2.1616    5.3473 C.3       1 <1>        -0.0293 
     13 C13        -0.5999    2.2789    6.7879 C.3       1 <1>        -0.0538 
     14 C14         0.9343    2.0496    6.8014 C.3       1 <1>        -0.0652 
     15 H1         -5.2839    1.3272   -0.2267 H         1 <1>         0.0360 
     16 C16        -3.7925    5.0669    0.1999 C.2       1 <1>        -0.1031 
     17 C17        -2.6322    4.5242   -0.2018 C.2       1 <1>        -0.0274 
     18 C18        -1.7726    5.1325   -1.2419 C.2       1 <1>         0.0135 
     19 C19        -2.4476    5.7729   -2.4360 C.3       1 <1>        -0.0153 
     20 C20        -0.4308    5.1226   -1.1667 C.2       1 <1>         0.0548 
     21 C21         0.3962    4.5631   -0.0690 C.2       1 <1>         0.2661 
     22 O22        -0.1045    4.2355    0.9910 O.2       1 <1>        -0.3516 
     23 O23         1.7188    4.4063   -0.1937 O.3       1 <1>        -0.2932 
     24 O24        -6.0601    4.8105    0.9674 O.3       1 <1>        -0.4739 
     25 H2         -4.1723    2.5243   -0.9127 H         1 <1>         0.0360 
     26 H3         -5.8919    2.9244   -0.6905 H         1 <1>         0.0360 
     27 H4         -2.2561    4.0436    2.5804 H         1 <1>         0.0219 
     28 H5         -2.4424    5.2115    3.9052 H         1 <1>         0.0219 
     29 H6         -2.2554    5.7826    2.2377 H         1 <1>         0.0219 
     30 H7         -4.4244    7.1108    2.1449 H         1 <1>         0.0219 
     31 H8         -4.3469    6.8228    3.9004 H         1 <1>         0.0219 
     32 H9         -5.8522    6.5001    3.0295 H         1 <1>         0.0219 
     33 H10        -6.0091    4.0809    3.5927 H         1 <1>         0.0325 
     34 H11        -4.7366    4.4358    4.7672 H         1 <1>         0.0325 
     35 H12        -5.1121    1.9522    4.2612 H         1 <1>         0.0935 
     36 H13        -4.6807    1.0490    2.0447 H         1 <1>         0.1201 
     37 H14        -3.2258    1.7005    5.9260 H         1 <1>         0.0564 
     38 H15        -2.8722    3.4426    5.6889 H         1 <1>         0.0564 
     39 H16        -0.6631    2.8918    4.6921 H         1 <1>         0.0287 
     40 H17        -0.9701    1.1521    4.9501 H         1 <1>         0.0287 
     41 H18        -1.0875    1.5315    7.4355 H         1 <1>         0.0263 
     42 H19        -0.8178    3.2815    7.1923 H         1 <1>         0.0263 
     43 H20         1.3201    2.1271    7.8299 H         1 <1>         0.0230 
     44 H21         1.4410    2.8044    6.1799 H         1 <1>         0.0230 
     45 H22         1.1779    1.0496    6.4099 H         1 <1>         0.0230 
     46 H23        -4.1063    6.0090   -0.2463 H         1 <1>         0.0477 
     47 H24        -2.3012    3.5911    0.2513 H         1 <1>         0.1020 
     48 H25        -3.4554    5.3564   -2.5878 H         1 <1>         0.0428 
     49 H26        -1.8793    5.6031   -3.3634 H         1 <1>         0.0428 
     50 H27        -2.5341    6.8566   -2.2659 H         1 <1>         0.0428 
     51 H28         0.1192    5.5792   -1.9882 H         1 <1>         0.0888 
     52 H29         2.0790    4.6623   -1.0328 H         1 <1>         0.2516 
     53 H30        -6.2275    5.7379    0.8543 H         1 <1>         0.1784 
@<TRIPOS>BOND
     1    9    1 1    
     2    5    2 1    
     3    5    3 1    
     4    5    4 1    
     5    7    6 1    
     6    6   11 1    
     7    4    7 1    
     8    7    8 1    
     9    9    8 2    
    10   10    9 1    
    11    5   10 1    
    12   11   12 1    
    13   12   13 1    
    14   13   14 1    
    15    1   15 1    
    16    1   25 1    
    17    1   26 1    
    18   10   16 1    
    19   16   17 2    
    20   17   18 1    
    21   18   19 1    
    22   18   20 2    
    23   20   21 1    
    24   21   22 2    
    25   21   23 1    
    26   10   24 1    
    27    2   27 1    
    28    2   28 1    
    29    2   29 1    
    30    3   30 1    
    31    3   31 1    
    32    3   32 1    
    33    4   33 1    
    34    4   34 1    
    35    7   35 1    
    36    8   36 1    
    37   11   37 1    
    38   11   38 1    
    39   12   39 1    
    40   12   40 1    
    41   13   41 1    
    42   13   42 1    
    43   14   43 1    
    44   14   44 1    
    45   14   45 1    
    46   16   46 1    
    47   17   47 1    
    48   19   48 1    
    49   19   49 1    
    50   19   50 1    
    51   20   51 1    
    52   23   52 1    
    53   24   53 1    
@<TRIPOS>SUBSTRUCTURE
     1 ****        5 TEMP              0 ****  ****    0 ROOT 
@<TRIPOS>NORMAL
@<TRIPOS>FF_PBC
FORCE_FIELD_SETUP_FEATURE Force Field Setup information
v1.0  0 0.000000 0.000000 0.000000 0.000000 0.000000 0.000000 NONE 0 0 0 0 1 0 0 0 0 0 0 0 0
