#	Name:			PISM00407
#	Creating user name:	baoopengkun
#	Creation time:		Sun Mar 31 19:27:40 2019

#	Modifying user name:	baoopengkun
#	Modification time:	Sun Mar 31 19:31:12 2019

@<TRIPOS>MOLECULE
PISM00407
   39    39     1     1     0
SMALL
GAST_HUCK


@<TRIPOS>ATOM
      1 C1         -8.1024    6.5138   -0.5003 C.3       1 <1>         0.0116 
      2 C2         -9.2238    5.4204   -0.5314 C.3       1 <1>        -0.0531 
      3 C3        -10.0821    5.5026   -1.8155 C.3       1 <1>        -0.0544 
      4 C4        -10.8377    6.8613   -1.8787 C.3       1 <1>        -0.0610 
      5 C5        -10.1461    7.9837   -1.0472 C.3       1 <1>        -0.0607 
      6 C6         -8.5947    7.8839   -1.1157 C.3       1 <1>         0.0299 
      7 C7         -7.7051    6.7132    0.9972 C.3       1 <1>         0.2345 
      8 C8         -6.8259    5.9862   -1.2299 C.3       1 <1>        -0.0651 
      9 C9        -10.6826    9.3807   -1.4723 C.3       1 <1>        -0.0730 
     10 C10        -8.1623    8.1337   -2.5528 C.2       1 <1>        -0.0719 
     11 C11        -7.6695    9.3006   -2.9943 C.2       1 <1>        -0.0082 
     12 C12        -7.1999    9.5620   -4.3720 C.2       1 <1>         0.0276 
     13 C13        -7.7192    9.1027   -5.5200 C.2       1 <1>         0.0852 
     14 C14        -8.9433    8.2860   -5.6525 C.2       1 <1>         0.3009 
     15 O15        -9.8698    8.4569   -4.8814 O.2       1 <1>        -0.3272 
     16 O16        -9.0752    7.3670   -6.6136 O.3       1 <1>        -0.2865 
     17 O17        -8.0959    8.9603   -0.2974 O.3       1 <1>        -0.4536 
     18 H1         -9.9120    5.5315    0.3226 H         1 <1>         0.0260 
     19 H2         -8.7762    4.4163   -0.4490 H         1 <1>         0.0260 
     20 H3        -10.8099    4.6733   -1.8362 H         1 <1>         0.0265 
     21 H4         -9.4288    5.3689   -2.6904 H         1 <1>         0.0265 
     22 H5        -11.8617    6.7394   -1.4860 H         1 <1>         0.0256 
     23 H6        -10.9321    7.1581   -2.9347 H         1 <1>         0.0256 
     24 H7        -10.4244    7.8637    0.0143 H         1 <1>         0.0157 
     25 F25        -7.4924    5.5122    1.6051 F         1 <1>        -0.2101 
     26 H9         -8.5061    7.2262    1.5510 H         1 <1>         0.1010 
     27 F27        -6.5675    7.4563    1.1107 F         1 <1>        -0.2101 
     28 H11        -6.3777    5.1503   -0.6704 H         1 <1>         0.0225 
     29 H12        -6.0697    6.7819   -1.3094 H         1 <1>         0.0225 
     30 H13        -7.0437    5.6138   -2.2398 H         1 <1>         0.0225 
     31 H14       -10.4457    9.5961   -2.5241 H         1 <1>         0.0220 
     32 H15       -10.2445   10.1744   -0.8477 H         1 <1>         0.0220 
     33 H16       -11.7767    9.4151   -1.3526 H         1 <1>         0.0220 
     34 H17        -8.2513    7.3279   -3.2745 H         1 <1>         0.0556 
     35 H18        -7.5760   10.1411   -2.3066 H         1 <1>         0.1255 
     36 H19        -6.3198   10.2054   -4.4377 H         1 <1>         0.0918 
     37 H20        -7.2151    9.3553   -6.4531 H         1 <1>         0.1276 
     38 H21        -8.3114    7.2582   -7.1664 H         1 <1>         0.2526 
     39 H22        -7.1465    8.9559   -0.2126 H         1 <1>         0.1856 
@<TRIPOS>BOND
     1    2    1 1    
     2    2    3 1    
     3    3    4 1    
     4    4    5 1    
     5    5    6 1    
     6    1    6 1    
     7    1    7 1    
     8    1    8 1    
     9    5    9 1    
    10    6   10 1    
    11   10   11 2    
    12   11   12 1    
    13   12   13 2    
    14   13   14 1    
    15   14   15 2    
    16   14   16 1    
    17    6   17 1    
    18    2   18 1    
    19    2   19 1    
    20    3   20 1    
    21    3   21 1    
    22    4   22 1    
    23    4   23 1    
    24    5   24 1    
    25    7   25 1    
    26    7   26 1    
    27    7   27 1    
    28    8   28 1    
    29    8   29 1    
    30    8   30 1    
    31    9   31 1    
    32    9   32 1    
    33    9   33 1    
    34   10   34 1    
    35   11   35 1    
    36   12   36 1    
    37   13   37 1    
    38   16   38 1    
    39   17   39 1    
@<TRIPOS>SUBSTRUCTURE
     1 ****        2 TEMP              0 ****  ****    0 ROOT 
@<TRIPOS>NORMAL
@<TRIPOS>FF_PBC
FORCE_FIELD_SETUP_FEATURE Force Field Setup information
v1.0  0 0.000000 0.000000 0.000000 0.000000 0.000000 0.000000 NONE 0 0 0 0 1 0 0 0 0 0 0 0 0
