#	Name:			PISM01196
#	Creating user name:	14062
#	Creation time:		Sat Apr 06 23:57:12 2019

#	Modifying user name:	14062
#	Modification time:	Sat Apr 06 23:59:08 2019

@<TRIPOS>MOLECULE
PISM01196
   42    42     1     1     0
SMALL
GAST_HUCK


@<TRIPOS>ATOM
      1 O1         -5.1546    9.0053    0.9657 O.3       1 BENZYL     -0.2793 
      2 C1         -3.8531    8.9787    0.6430 C.2       1 BENZYL      0.2499 
      3 C2         -3.3288    7.8521   -0.2218 C.ar      1 BENZYL      0.0337 
      4 C3         -4.2031    6.8808   -0.7200 C.ar      1 BENZYL     -0.0312 
      5 C4         -3.7219    5.8171   -1.4877 C.ar      1 BENZYL      0.1141 
      6 C5         -2.3565    5.7343   -1.7800 C.ar      1 BENZYL      0.1498 
      7 C6         -1.4743    6.7105   -1.3008 C.ar      1 BENZYL      0.1141 
      8 C7         -1.9646    7.7655   -0.5225 C.ar      1 BENZYL     -0.0312 
      9 O9         -3.0823    9.8371    1.0444 O.2       1 BENZYL     -0.3624 
     10 O10        -4.6132    4.8472   -1.9573 O.3       1 BENZYL     -0.3389 
     11 O11        -1.8889    4.6686   -2.5544 O.3       1 BENZYL     -0.3381 
     12 O12        -0.1143    6.6028   -1.6135 O.3       1 BENZYL     -0.3389 
     13 C13        -5.5134   10.0520    1.8905 C.3       1 BENZYL      0.0755 
     14 C14        -7.0235    9.9070    2.2072 C.3       1 BENZYL     -0.0252 
     15 C15        -7.4685   10.8664    3.3450 C.3       1 BENZYL     -0.0507 
     16 C16        -8.9768   10.6929    3.6737 C.3       1 BENZYL     -0.0530 
     17 C17        -9.3923   11.5621    4.8923 C.3       1 BENZYL     -0.0531 
     18 C18       -10.8963   11.3730    5.2327 C.3       1 BENZYL     -0.0533 
     19 C19       -11.3035   12.1849    6.4935 C.3       1 BENZYL     -0.0559 
     20 C20       -12.8059   11.9881    6.8275 C.3       1 BENZYL     -0.0653 
     21 H1         -5.2667    6.9408   -0.5143 H         1 BENZYL      0.0477 
     22 H2         -1.2862    8.5215   -0.1435 H         1 BENZYL      0.0477 
     23 H3         -4.1642    4.1384   -2.4089 H         1 BENZYL      0.2437 
     24 H4         -0.9484    4.7196   -2.6998 H         1 BENZYL      0.2422 
     25 H5          0.4263    7.3048   -1.2666 H         1 BENZYL      0.2437 
     26 H6         -5.3155   11.0499    1.4627 H         1 BENZYL      0.0611 
     27 H7         -4.9375    9.9406    2.8252 H         1 BENZYL      0.0611 
     28 H8         -7.2118    8.8658    2.5150 H         1 BENZYL      0.0291 
     29 H9         -7.6085   10.1067    1.2948 H         1 BENZYL      0.0291 
     30 H10        -7.2726   11.9090    3.0434 H         1 BENZYL      0.0266 
     31 H11        -6.8773   10.6502    4.2507 H         1 BENZYL      0.0266 
     32 H12        -9.1762    9.6336    3.9061 H         1 BENZYL      0.0265 
     33 H13        -9.5790   10.9694    2.7916 H         1 BENZYL      0.0265 
     34 H14        -9.1968   12.6244    4.6709 H         1 BENZYL      0.0265 
     35 H15        -8.7848   11.2740    5.7665 H         1 BENZYL      0.0265 
     36 H16       -11.0990   10.3045    5.4137 H         1 BENZYL      0.0265 
     37 H17       -11.5034   11.7013    4.3724 H         1 BENZYL      0.0265 
     38 H18       -11.1075   13.2568    6.3273 H         1 BENZYL      0.0263 
     39 H19       -10.7014   11.8535    7.3564 H         1 BENZYL      0.0263 
     40 H20       -13.4346   12.3385    5.9942 H         1 BENZYL      0.0230 
     41 H21       -13.0732   12.5620    7.7298 H         1 BENZYL      0.0230 
     42 H22       -13.0230   10.9232    7.0140 H         1 BENZYL      0.0230 
@<TRIPOS>BOND
     1    2    3 1    
     2    3    4 ar   
     3    3    8 ar   
     4    8    7 ar   
     5    7    6 ar   
     6    6    5 ar   
     7    5    4 ar   
     8    2    1 1    
     9    2    9 2    
    10    5   10 1    
    11    6   11 1    
    12    7   12 1    
    13    1   13 1    
    14   13   14 1    
    15   14   15 1    
    16   15   16 1    
    17   16   17 1    
    18   17   18 1    
    19   18   19 1    
    20   19   20 1    
    21    4   21 1    
    22    8   22 1    
    23   10   23 1    
    24   11   24 1    
    25   12   25 1    
    26   13   26 1    
    27   13   27 1    
    28   14   28 1    
    29   14   29 1    
    30   15   30 1    
    31   15   31 1    
    32   16   32 1    
    33   16   33 1    
    34   17   34 1    
    35   17   35 1    
    36   18   36 1    
    37   18   37 1    
    38   19   38 1    
    39   19   39 1    
    40   20   40 1    
    41   20   41 1    
    42   20   42 1    
@<TRIPOS>SUBSTRUCTURE
     1 BENZYL      2 PERM              0 ****  ****    0 ROOT 
@<TRIPOS>NORMAL
@<TRIPOS>FF_PBC
FORCE_FIELD_SETUP_FEATURE Force Field Setup information
v1.0  0 0.000000 0.000000 0.000000 0.000000 0.000000 0.000000 NONE 0 0 0 0 1 0 0 0 0 0 0 0 0
