#	Name:			PISM01098
#	Creating user name:	Qinrunwen
#	Creation time:		Mon Apr 01 14:12:54 2019

#	Modifying user name:	Qinrunwen
#	Modification time:	Mon Apr 01 14:17:33 2019

@<TRIPOS>MOLECULE
PISM01098
   33    35     1     1     0
SMALL
GAST_HUCK


@<TRIPOS>ATOM
      1 C1          6.4895   36.4193   -5.6406 C.ar      1 <1>        -0.0306 
      2 C2          7.8293   36.5609   -5.2615 C.ar      1 <1>        -0.0576 
      3 C3          8.5944   37.6175   -5.7688 C.ar      1 <1>        -0.0281 
      4 C4          8.0650   38.4591   -6.7500 C.ar      1 <1>         0.1324 
      5 C5          6.7485   38.2782   -7.1807 C.ar      1 <1>        -0.0281 
      6 C6          5.9588   37.2748   -6.6113 C.ar      1 <1>        -0.0576 
      7 C7          5.5870   35.3592   -5.0466 C.2       1 <1>        -0.0311 
      8 C8          5.4958   35.0571   -3.7454 C.2       1 <1>         0.1202 
      9 C9          6.1674   35.6351   -2.5758 C.2       1 <1>         0.2711 
     10 C10         4.8386   34.1036   -1.5056 C.2       1 <1>         0.3072 
     11 N11         5.7719   35.0756   -1.4171 N.am      1 <1>        -0.0655 
     12 S12         4.3959   33.7783   -3.2056 S.3       1 <1>         0.0460 
     13 O13         4.3687   33.5303   -0.5380 O.2       1 <1>        -0.3680 
     14 N14         6.3506   35.5527   -0.0634 N.pl3     1 <1>        -0.1943 
     15 C15         7.5074   35.0344    0.4191 C.ar      1 <1>         0.0684 
     16 C16         8.1412   35.6211    1.5217 C.ar      1 <1>        -0.0393 
     17 C17         9.3516   35.1104    1.9995 C.ar      1 <1>        -0.0627 
     18 C18         9.9420   34.0081    1.3793 C.ar      1 <1>        -0.0043 
     19 C19         9.3030   33.4019    0.2941 C.ar      1 <1>        -0.0627 
     20 C20         8.0883   33.9095   -0.1785 C.ar      1 <1>        -0.0393 
     21 I21        11.7374   33.2807    2.0603 I         1 <1>        -0.0607 
     22 F22         8.8104   39.4307   -7.2745 F         1 <1>        -0.1833 
     23 O23         6.9824   36.5392   -2.6378 O.2       1 <1>        -0.3715 
     24 H1          8.2873   35.8498   -4.5805 H         1 <1>         0.0605 
     25 H2          9.6017   37.7898   -5.4056 H         1 <1>         0.0604 
     26 H3          6.3457   38.9235   -7.9557 H         1 <1>         0.0604 
     27 H4          4.9254   37.1666   -6.9261 H         1 <1>         0.0605 
     28 H5          4.9506   34.8106   -5.7406 H         1 <1>         0.0585 
     29 H6          5.8631   36.3093    0.4445 H         1 <1>         0.2125 
     30 H7          7.6967   36.4812    2.0124 H         1 <1>         0.0522 
     31 H8          9.8353   35.5698    2.8558 H         1 <1>         0.0610 
     32 H9          9.7506   32.5354   -0.1794 H         1 <1>         0.0610 
     33 H10         7.6012   33.4176   -1.0133 H         1 <1>         0.0522 
@<TRIPOS>BOND
     1    1    2 ar   
     2    2    3 ar   
     3    3    4 ar   
     4    5    4 ar   
     5    6    5 ar   
     6    1    6 ar   
     7    7    1 1    
     8    8    7 2    
     9    9    8 1    
    10   10   12 1    
    11   11   10 am   
    12   11    9 am   
    13    8   12 1    
    14   14   11 1    
    15   10   13 2    
    16   14   15 1    
    17   15   16 ar   
    18   16   17 ar   
    19   17   18 ar   
    20   19   18 ar   
    21   20   19 ar   
    22   15   20 ar   
    23   18   21 1    
    24    4   22 1    
    25    9   23 2    
    26    2   24 1    
    27    3   25 1    
    28    5   26 1    
    29    6   27 1    
    30    7   28 1    
    31   14   29 1    
    32   16   30 1    
    33   17   31 1    
    34   19   32 1    
    35   20   33 1    
@<TRIPOS>SUBSTRUCTURE
     1 ****       14 TEMP              0 ****  ****    0 ROOT 
@<TRIPOS>NORMAL
@<TRIPOS>FF_PBC
FORCE_FIELD_SETUP_FEATURE Force Field Setup information
v1.0  0 0.000000 0.000000 0.000000 0.000000 0.000000 0.000000 NONE 0 0 0 0 1 0 0 0 0 0 0 0 0
