#	Name:			PISM00607
#	Creating user name:	baoopengkun
#	Creation time:		Mon Dec 10 09:57:38 2018

#	Modifying user name:	baoopengkun
#	Modification time:	Mon Dec 10 09:57:51 2018

@<TRIPOS>MOLECULE
PISM00607
   44    47     1     2     0
SMALL
GAST_HUCK


@<TRIPOS>ATOM
      1 C1          3.5470    9.4953   -6.6393 C.ar      1 <1>        -0.0348 
      2 C2          2.6277    9.9000   -5.6668 C.ar      1 <1>        -0.0180 
      3 C3          2.2045    8.9992   -4.6857 C.ar      1 <1>         0.0714 
      4 C4          2.7083    7.6958   -4.6716 C.ar      1 <1>        -0.0180 
      5 C5          3.6252    7.2911   -5.6458 C.ar      1 <1>        -0.0348 
      6 C6          4.0345    8.1842   -6.6420 C.ar      1 <1>         0.0068 
      7 C7          5.0161    7.7174   -7.7262 C.3       1 <1>         0.1921 
      8 C8          6.4648    7.8732   -7.2003 C.3       1 <1>         0.1073 
      9 N9          7.5229    7.4347   -8.1008 N.pl3     1 <1>        -0.1814 
     10 N10         8.8577    7.4454   -7.8257 N.2       1 <1>        -0.1908 
     11 C11         9.5770    7.0021   -8.7885 C.2       1 <1>         0.0618 
     12 N12         8.5633    6.6863   -9.7561 N.2       1 <1>        -0.2870 
     13 C13         7.4234    6.9543   -9.3036 C.2       1 <1>         0.1270 
     14 O14         4.8225    8.3983   -8.9724 O.3       1 <1>        -0.3814 
     15 C15         3.6237    7.8699   -9.5478 C.3       1 <1>         0.0672 
     16 C16         3.6553    6.3948   -9.0713 C.3       1 <1>         0.1004 
     17 O17         4.7266    6.3681   -8.1123 O.3       1 <1>        -0.3757 
     18 C18         2.3025    5.9208   -8.4806 C.3       1 <1>         0.0979 
     19 O19         2.4281    4.5637   -8.0221 O.3       1 <1>        -0.3145 
     20 C20         1.2603    4.0470   -7.4624 C.ar      1 <1>         0.1060 
     21 C21         1.0270    4.1889   -6.0922 C.ar      1 <1>        -0.0323 
     22 C22        -0.1480    3.6863   -5.5262 C.ar      1 <1>        -0.0699 
     23 C23        -1.0855    3.0356   -6.3336 C.ar      1 <1>        -0.0585 
     24 C24        -0.8493    2.8862   -7.7033 C.ar      1 <1>         0.0458 
     25 C25         0.3262    3.3899   -8.2692 C.ar      1 <1>         0.0816 
     26 Cl26        1.0444    9.5033   -3.4739 Cl        1 <1>        -0.0420 
     27 H1          3.8825   10.2016   -7.3926 H         1 <1>         0.0849 
     28 H2          2.2413   10.9143   -5.6715 H         1 <1>         0.0703 
     29 H3          2.3861    6.9998   -3.9037 H         1 <1>         0.0703 
     30 H4          4.0186    6.2789   -5.6302 H         1 <1>         0.0849 
     31 H5          6.5692    7.2924   -6.2720 H         1 <1>         0.0595 
     32 H6          6.6429    8.9353   -6.9760 H         1 <1>         0.0595 
     33 H7         10.6585    6.8947   -8.8539 H         1 <1>         0.0863 
     34 H8          6.5118    6.7902   -9.8743 H         1 <1>         0.1361 
     35 H9          3.6314    7.9806  -10.6432 H         1 <1>         0.0576 
     36 H10         2.7582    8.4153   -9.1402 H         1 <1>         0.0576 
     37 H11         3.9451    5.7148   -9.8889 H         1 <1>         0.0635 
     38 H12         1.5307    5.9828   -9.2649 H         1 <1>         0.0641 
     39 H13         2.0045    6.5700   -7.6442 H         1 <1>         0.0641 
     40 H14         1.7621    4.6901   -5.4717 H         1 <1>         0.0544 
     41 H15        -0.3317    3.8005   -4.4620 H         1 <1>         0.0591 
     42 H42        -1.9992    2.6444   -5.8976 H         1 <1>         0.0529 
     43 Cl43       -2.0324    2.0668   -8.7032 Cl        1 <1>        -0.0729 
     44 Cl44        0.6340    3.2030   -9.9846 Cl        1 <1>        -0.0782 
@<TRIPOS>BOND
     1    2    1 ar   
     2    2    3 ar   
     3    3    4 ar   
     4    4    5 ar   
     5    5    6 ar   
     6    1    6 ar   
     7    6    7 1    
     8    7    8 1    
     9    8    9 1    
    10    9   10 1    
    11   10   11 2    
    12   11   12 1    
    13   12   13 2    
    14    9   13 1    
    15    7   14 1    
    16   14   15 1    
    17   15   16 1    
    18   16   17 1    
    19    7   17 1    
    20   16   18 1    
    21   18   19 1    
    22   19   20 1    
    23   20   21 ar   
    24   21   22 ar   
    25   22   23 ar   
    26   23   24 ar   
    27   24   25 ar   
    28   20   25 ar   
    29    3   26 1    
    30    1   27 1    
    31    2   28 1    
    32    4   29 1    
    33    5   30 1    
    34    8   31 1    
    35    8   32 1    
    36   11   33 1    
    37   13   34 1    
    38   15   35 1    
    39   15   36 1    
    40   16   37 1    
    41   18   38 1    
    42   18   39 1    
    43   21   40 1    
    44   22   41 1    
    45   23   42 1    
    46   24   43 1    
    47   25   44 1    
@<TRIPOS>SUBSTRUCTURE
     1 ****        2 TEMP              0 ****  ****    0 ROOT 
@<TRIPOS>NORMAL
@<TRIPOS>FF_PBC
FORCE_FIELD_SETUP_FEATURE Force Field Setup information
v1.0  0 0.000000 0.000000 0.000000 0.000000 0.000000 0.000000 NONE 0 0 0 0 1 0 0 0 0 0 0 0 0
@<TRIPOS>RENDERING_ATTRS
ANTIALIASED_LINES 
*
