#	Name:			PISM00236
#	Creating user name:	14062
#	Creation time:		Sat Apr 06 01:56:46 2019

#	Modifying user name:	14062
#	Modification time:	Sat Apr 06 01:58:38 2019

@<TRIPOS>MOLECULE
PISM00236
   26    28     1     1     0
SMALL
GAST_HUCK


@<TRIPOS>ATOM
      1 C1          8.5292   -2.6050    2.9631 C.ar      1 BENZYL     -0.0204 
      2 C1          9.6585   -1.9666    3.7743 C.3       1 BENZYL      0.0176 
      3 C2         10.6755   -1.7804    2.6449 C.ar      1 BENZYL     -0.0183 
      4 C3         10.2556   -2.3301    1.4351 C.ar      1 BENZYL      0.0027 
      5 C4         11.1261   -2.4050    0.3416 C.ar      1 BENZYL      0.0608 
      6 C5         12.3261   -1.6858    0.4192 C.ar      1 BENZYL     -0.0474 
      7 C6         12.7151   -1.0555    1.6080 C.ar      1 BENZYL     -0.0623 
      8 C7         11.9073   -1.1326    2.7470 C.ar      1 BENZYL     -0.0533 
      9 C9          8.8476   -2.7457    1.6145 C.ar      1 BENZYL     -0.0130 
     10 C10         7.2888   -3.0162    3.4538 C.ar      1 BENZYL     -0.0466 
     11 C11         6.3517   -3.5380    2.5557 C.ar      1 BENZYL      0.0030 
     12 C12         6.6471   -3.6122    1.1886 C.ar      1 BENZYL     -0.0574 
     13 C13         7.8875   -3.1863    0.6999 C.ar      1 BENZYL     -0.0587 
     14 C14        10.8453   -3.2361   -0.8913 C.2       1 BENZYL      0.2582 
     15 O15        10.1616   -4.2442   -0.8127 O.2       1 BENZYL     -0.3582 
     16 O16        11.3733   -2.8772   -2.0632 O.3       1 BENZYL     -0.2939 
     17 I17         4.5335   -4.1939    3.2468 I         1 BENZYL     -0.0515 
     18 H1          9.3505   -1.0034    4.2075 H         1 BENZYL      0.0623 
     19 H2         10.0358   -2.6488    4.5505 H         1 BENZYL      0.0623 
     20 H3         12.9741   -1.6220   -0.4494 H         1 BENZYL      0.0620 
     21 H4         13.6518   -0.5077    1.6484 H         1 BENZYL      0.0607 
     22 H5         12.2253   -0.6966    3.6884 H         1 BENZYL      0.0603 
     23 H6          7.0598   -2.9304    4.5104 H         1 BENZYL      0.0594 
     24 H7          5.9050   -4.0021    0.4994 H         1 BENZYL      0.0588 
     25 H8          8.0792   -3.1910   -0.3655 H         1 BENZYL      0.0608 
     26 H9         11.1322   -3.4817   -2.7565 H         1 BENZYL      0.2522 
@<TRIPOS>BOND
     1    2    3 1    
     2    3    4 ar   
     3    3    8 ar   
     4    8    7 ar   
     5    7    6 ar   
     6    6    5 ar   
     7    5    4 ar   
     8    2    1 1    
     9    4    9 1    
    10    1    9 ar   
    11    1   10 ar   
    12   10   11 ar   
    13   11   12 ar   
    14   12   13 ar   
    15    9   13 ar   
    16    5   14 1    
    17   14   15 2    
    18   14   16 1    
    19   11   17 1    
    20    2   18 1    
    21    2   19 1    
    22    6   20 1    
    23    7   21 1    
    24    8   22 1    
    25   10   23 1    
    26   12   24 1    
    27   13   25 1    
    28   16   26 1    
@<TRIPOS>SUBSTRUCTURE
     1 BENZYL      2 PERM              0 ****  ****    0 ROOT 
@<TRIPOS>NORMAL
@<TRIPOS>FF_PBC
FORCE_FIELD_SETUP_FEATURE Force Field Setup information
v1.0  0 0.000000 0.000000 0.000000 0.000000 0.000000 0.000000 NONE 0 0 0 0 1 0 0 0 0 0 0 0 0
