#	Name:			PISM01209
#	Creating user name:	14062
#	Creation time:		Sun Apr 07 00:46:42 2019

#	Modifying user name:	14062
#	Modification time:	Sun Apr 07 00:52:00 2019

@<TRIPOS>MOLECULE
PISM01209
   42    43     1     1     0
SMALL
GAST_HUCK


@<TRIPOS>ATOM
      1 C1        -14.0441   10.5476   -8.1272 C.ar      1 <1>         0.0369 
      2 O2        -14.8257    7.4518  -10.0020 O.3       1 <1>        -0.3308 
      3 O3        -12.2005    5.0160   -6.6103 O.2       1 <1>        -0.3550 
      4 O4        -10.7766    3.3240   -6.7041 O.3       1 <1>        -0.2929 
      5 N5        -14.5892   11.7667   -7.8885 N.pl3     1 <1>        -0.3084 
      6 C6        -14.7242    9.6115   -8.9115 C.ar      1 <1>        -0.0101 
      7 C7        -14.1614    8.3573   -9.1735 C.ar      1 <1>         0.0967 
      8 C8        -12.9242    8.0164   -8.6133 C.ar      1 <1>         0.0500 
      9 C9        -12.2475    8.9510   -7.8206 C.ar      1 <1>        -0.0622 
     10 C10       -12.7965   10.2156   -7.5919 C.ar      1 <1>        -0.0483 
     11 C11       -12.3193    6.6486   -8.8513 C.2       1 <1>         0.1494 
     12 C12       -10.8271    6.4278   -8.7443 C.ar      1 <1>         0.0501 
     13 C13        -9.9662    7.2932   -9.4279 C.ar      1 <1>        -0.0384 
     14 C14        -8.5931    7.0359   -9.4645 C.ar      1 <1>        -0.0519 
     15 C15        -8.0828    5.9019   -8.8276 C.ar      1 <1>        -0.0517 
     16 C16        -8.9369    5.0682   -8.0999 C.ar      1 <1>        -0.0354 
     17 C17       -10.2999    5.3682   -7.9957 C.ar      1 <1>         0.0790 
     18 C18       -15.0001   12.6068   -9.0192 C.3       1 <1>         0.0249 
     19 O19       -13.0231    5.6960   -9.1456 O.2       1 <1>        -0.3787 
     20 C20       -11.1648    4.5507   -7.0596 C.2       1 <1>         0.2646 
     21 C21       -14.3463   14.0114   -8.9681 C.3       1 <1>        -0.0452 
     22 C22       -14.7566   12.2226   -6.5038 C.3       1 <1>         0.0249 
     23 C23       -16.2242   12.6168   -6.1974 C.3       1 <1>        -0.0452 
     24 H1        -15.7588    7.4128   -9.8273 H         1 <1>         0.2507 
     25 H2        -11.4036    2.9155   -6.1172 H         1 <1>         0.2524 
     26 H3        -15.6973    9.8612   -9.3200 H         1 <1>         0.0447 
     27 H4        -11.2925    8.7008   -7.3700 H         1 <1>         0.0611 
     28 H5        -12.2503   10.9423   -6.9991 H         1 <1>         0.0446 
     29 H6        -10.3637    8.1624   -9.9429 H         1 <1>         0.0681 
     30 H7         -7.9256    7.7120   -9.9906 H         1 <1>         0.0665 
     31 H8         -7.0237    5.6710   -8.8950 H         1 <1>         0.0664 
     32 H9         -8.5323    4.1896   -7.6071 H         1 <1>         0.0684 
     33 H10       -16.0979   12.6928   -9.0424 H         1 <1>         0.0514 
     34 H11       -14.6880   12.1471   -9.9729 H         1 <1>         0.0514 
     35 H12       -13.2531   13.9059   -8.8889 H         1 <1>         0.0249 
     36 H13       -14.5817   14.5749   -9.8850 H         1 <1>         0.0249 
     37 H14       -14.7091   14.5940   -8.1090 H         1 <1>         0.0249 
     38 H15       -14.0794   13.0674   -6.3023 H         1 <1>         0.0514 
     39 H16       -14.4912   11.4160   -5.7986 H         1 <1>         0.0514 
     40 H17       -16.5323   13.5028   -6.7711 H         1 <1>         0.0249 
     41 H18       -16.3408   12.8473   -5.1265 H         1 <1>         0.0249 
     42 H19       -16.8914   11.7792   -6.4533 H         1 <1>         0.0249 
@<TRIPOS>BOND
     1    6    1 ar   
     2   10    1 ar   
     3    7    2 1    
     4   20    3 2    
     5   20    4 1    
     6    1    5 1    
     7    6    7 ar   
     8    7    8 ar   
     9    8    9 ar   
    10    9   10 ar   
    11    5   18 1    
    12    8   11 1    
    13   11   12 1    
    14   12   13 ar   
    15   13   14 ar   
    16   14   15 ar   
    17   16   15 ar   
    18   17   16 ar   
    19   12   17 ar   
    20   18   21 1    
    21   11   19 2    
    22   17   20 1    
    23    5   22 1    
    24   22   23 1    
    25    2   24 1    
    26    4   25 1    
    27    6   26 1    
    28    9   27 1    
    29   10   28 1    
    30   13   29 1    
    31   14   30 1    
    32   15   31 1    
    33   16   32 1    
    34   18   33 1    
    35   18   34 1    
    36   21   35 1    
    37   21   36 1    
    38   21   37 1    
    39   22   38 1    
    40   22   39 1    
    41   23   40 1    
    42   23   41 1    
    43   23   42 1    
@<TRIPOS>SUBSTRUCTURE
     1 ****        6 TEMP              0 ****  ****    0 ROOT 
@<TRIPOS>NORMAL
@<TRIPOS>FF_PBC
FORCE_FIELD_SETUP_FEATURE Force Field Setup information
v1.0  0 0.000000 0.000000 0.000000 0.000000 0.000000 0.000000 NONE 0 0 0 0 1 0 0 0 0 0 0 0 0
