#	Name:			PISM00647
#	Creating user name:	baoopengkun
#	Creation time:		Sat Jan 12 19:29:01 2019

#	Modifying user name:	baoopengkun
#	Modification time:	Sat Jan 12 19:32:23 2019

@<TRIPOS>MOLECULE
PISM00647
   24    24     1     1     0
SMALL
GAST_HUCK


@<TRIPOS>ATOM
      1 Cl1        -9.0643    0.4303    1.1232 Cl        1 <1>        -0.0722 
      2 C2         -7.3576    0.1427    0.8524 C.ar      1 <1>         0.0547 
      3 C3         -6.8239   -1.1407    0.9944 C.ar      1 <1>         0.0116 
      4 N4         -5.5093   -1.3610    0.7834 N.ar      1 <1>        -0.2802 
      5 C5         -4.6790   -0.3749    0.3848 C.ar      1 <1>         0.1351 
      6 C6         -5.1550    0.9381    0.2780 C.ar      1 <1>        -0.0110 
      7 C7         -6.5119    1.1944    0.4946 C.ar      1 <1>        -0.0388 
      8 N8         -3.3957   -0.7184    0.1215 N.pl3     1 <1>        -0.2236 
      9 C9         -2.7166   -0.2036   -0.8700 C.2       1 <1>         0.2064 
     10 O10        -3.1813    0.6250   -1.6340 O.2       1 <1>        -0.3779 
     11 C11        -0.3265    0.3493   -0.3860 C.3       1 <1>         0.0660 
     12 C12         1.1163   -0.0016   -0.6347 C.2       1 <1>         0.2335 
     13 O13         1.4422   -1.0086   -1.2423 O.2       1 <1>        -0.3704 
     14 O14         2.0115    0.8564   -0.1476 O.3       1 <1>        -0.2926 
     15 C15        -1.2856   -0.6242   -1.1175 C.3       1 <1>         0.0614 
     16 H1         -7.4662   -1.9674    1.2753 H         1 <1>         0.0792 
     17 H2         -4.4891    1.7600    0.0407 H         1 <1>         0.0624 
     18 H3         -6.9067    2.1998    0.3886 H         1 <1>         0.0708 
     19 H4         -2.9689   -1.4436    0.7137 H         1 <1>         0.2154 
     20 H5         -0.5006    1.3772   -0.7425 H         1 <1>         0.0544 
     21 H6         -0.5103    0.3177    0.6991 H         1 <1>         0.0544 
     22 H7          2.8979    0.5731   -0.3459 H         1 <1>         0.2539 
     23 H8         -1.1118   -1.6582   -0.7800 H         1 <1>         0.0537 
     24 H9         -1.0873   -0.5895   -2.2013 H         1 <1>         0.0537 
@<TRIPOS>BOND
     1    2    1 1    
     2    3    2 ar   
     3    4    3 ar   
     4    5    4 ar   
     5    5    6 ar   
     6    6    7 ar   
     7    7    2 ar   
     8    8    5 1    
     9    9    8 1    
    10    9   10 2    
    11   11   12 1    
    12   15   11 1    
    13   12   13 2    
    14   12   14 1    
    15    9   15 1    
    16    3   16 1    
    17    6   17 1    
    18    7   18 1    
    19    8   19 1    
    20   11   20 1    
    21   11   21 1    
    22   14   22 1    
    23   15   23 1    
    24   15   24 1    
@<TRIPOS>SUBSTRUCTURE
     1 ****        2 TEMP              0 ****  ****    0 ROOT 
@<TRIPOS>NORMAL
@<TRIPOS>FF_PBC
FORCE_FIELD_SETUP_FEATURE Force Field Setup information
v1.0  0 0.000000 0.000000 0.000000 0.000000 0.000000 0.000000 NONE 0 0 0 0 1 0 0 0 0 0 0 0 0
