#	Name:			PISM00689
#	Creating user name:	14062
#	Creation time:		Sun Oct 20 20:19:37 2019

#	Modifying user name:	14062
#	Modification time:	Sun Oct 20 20:21:36 2019

@<TRIPOS>MOLECULE
PISM00689
   39    41     3     2     0
SMALL
GAST_HUCK


@<TRIPOS>ATOM
      1 C1         -0.3884    0.1322    0.7436 C.3       1 PHENYL      0.0604 
      2 C          -1.5887   -0.1764   -0.1755 C.ar      1 PHENYL     -0.0645 
      3 C          -2.0994   -1.4772   -0.2563 C.ar      1 PHENYL     -0.0594 
      4 C          -3.1292   -1.7841   -1.1499 C.ar      1 PHENYL     -0.0387 
      5 C          -3.6954   -0.7845   -1.9473 C.ar      1 PHENYL     -0.0072 
      6 C          -3.2277    0.5284   -1.8269 C.ar      1 PHENYL     -0.0387 
      7 C          -2.1999    0.8325   -0.9296 C.ar      1 PHENYL     -0.0594 
      8 C           0.6530   -0.9996    0.8354 C.ar      2 PHENYL     -0.0610 
      9 C           1.3455   -1.2078    2.0342 C.ar      2 PHENYL     -0.0556 
     10 C           2.2739   -2.2462    2.1513 C.ar      2 PHENYL     -0.0443 
     11 C           2.5329   -3.0784    1.0593 C.ar      2 PHENYL     -0.0445 
     12 C           1.8649   -2.8631   -0.1489 C.ar      2 PHENYL     -0.0443 
     13 C           0.9348   -1.8254   -0.2604 C.ar      2 PHENYL     -0.0556 
     14 C           0.4279    1.3535    0.2838 C.ar      3 PHENYL     -0.0610 
     15 C           0.8022    2.3504    1.1933 C.ar      3 PHENYL     -0.0551 
     16 C           1.5392    3.4600    0.7691 C.ar      3 PHENYL     -0.0301 
     17 C           1.9175    3.5789   -0.5701 C.ar      3 PHENYL      0.0598 
     18 C           1.5557    2.5855   -1.4828 C.ar      3 PHENYL     -0.0301 
     19 C           0.8141    1.4801   -1.0564 C.ar      3 PHENYL     -0.0551 
     20 O20        -0.9712    0.3911    2.0333 O.3       1 PHENYL     -0.4554 
     21 Cl21        2.8423    4.9681   -1.1030 Cl        3 PHENYL     -0.0527 
     22 H1         -1.6994   -2.2602    0.3801 H         1 PHENYL      0.0746 
     23 H2         -3.4892   -2.8056   -1.2231 H         1 PHENYL      0.0620 
     24 C24        -4.8141   -1.1425   -2.9326 C.3       1 PHENYL      0.0665 
     25 H4         -3.6599    1.3214   -2.4288 H         1 PHENYL      0.0620 
     26 H5         -1.8851    1.8650   -0.8202 H         1 PHENYL      0.0746 
     27 H6          1.1677   -0.5578    2.8849 H         2 PHENYL      0.0753 
     28 H7          2.7946   -2.4054    3.0907 H         2 PHENYL      0.0667 
     29 H8          3.2508   -3.8880    1.1490 H         2 PHENYL      0.0765 
     30 H9          2.0689   -3.5030   -1.0021 H         2 PHENYL      0.0667 
     31 H10         0.4350   -1.6700   -1.2101 H         2 PHENYL      0.0753 
     32 H11         0.5256    2.2707    2.2393 H         3 PHENYL      0.0753 
     33 H12         1.8195    4.2310    1.4794 H         3 PHENYL      0.0672 
     34 H13         1.8514    2.6747   -2.5231 H         3 PHENYL      0.0672 
     35 H14         0.5381    0.7197   -1.7781 H         3 PHENYL      0.0753 
     36 H15        -1.4470   -0.3589    2.3744 H         1 PHENYL      0.1834 
     37 H3         -5.3198   -0.2464   -3.3225 H         1 PHENYL      0.0642 
     38 H16        -5.5634   -1.7766   -2.4351 H         1 PHENYL      0.0642 
     39 Cl39       -4.1157   -2.0329   -4.2895 Cl        1 PHENYL     -0.1045 
@<TRIPOS>BOND
     1    2    3 ar   
     2    2    7 ar   
     3    7    6 ar   
     4    6    5 ar   
     5    5    4 ar   
     6    4    3 ar   
     7    2    1 1    
     8    8    9 ar   
     9    8   13 ar   
    10   13   12 ar   
    11   12   11 ar   
    12   11   10 ar   
    13   10    9 ar   
    14    1    8 1    
    15   14   15 ar   
    16   14   19 ar   
    17   19   18 ar   
    18   18   17 ar   
    19   17   16 ar   
    20   16   15 ar   
    21    1   14 1    
    22    1   20 1    
    23   17   21 1    
    24    3   22 1    
    25    4   23 1    
    26    5   24 1    
    27    6   25 1    
    28    7   26 1    
    29    9   27 1    
    30   10   28 1    
    31   11   29 1    
    32   12   30 1    
    33   13   31 1    
    34   15   32 1    
    35   16   33 1    
    36   18   34 1    
    37   19   35 1    
    38   20   36 1    
    39   24   37 1    
    40   24   38 1    
    41   24   39 1    
@<TRIPOS>SUBSTRUCTURE
     1 PHENYL      2 PERM              0 ****  ****    2 ROOT 
     2 PHENYL      8 PERM              0 ****  ****    1  
     3 PHENYL     14 PERM              0 ****  ****    1  
@<TRIPOS>NORMAL
@<TRIPOS>FF_PBC
FORCE_FIELD_SETUP_FEATURE Force Field Setup information
v1.0  0 0.000000 0.000000 0.000000 0.000000 0.000000 0.000000 NONE 0 0 0 0 1 0 0 0 0 0 0 0 0
@<TRIPOS>RENDERING_ATTRS
ANTIALIASED_LINES 
1,2,3,4,5,6,7,8,9,10,11,12,13,14,15,16,17,18,19,20,21,22,23,24,25,26,27,28,29,30,31,32,33,34,35,36
