#	Name:			PISM00818
#	Creating user name:	baoopengkun
#	Creation time:		Fri Nov 30 17:28:07 2018

#	Modifying user name:	baoopengkun
#	Modification time:	Fri Nov 30 17:31:56 2018

@<TRIPOS>MOLECULE
PISM00818
   34    35     1     2     0
SMALL
GAST_HUCK


@<TRIPOS>ATOM
      1 C1          7.1108    4.0774   -4.3642 C.ar      1 <1>        -0.0642 
      2 C2          8.0759    3.0710   -4.2699 C.ar      1 <1>        -0.0692 
      3 C3          8.6447    2.7640   -3.0311 C.ar      1 <1>        -0.0685 
      4 C4          8.2722    3.4905   -1.8969 C.ar      1 <1>        -0.0555 
      5 C5          7.3333    4.5211   -1.9976 C.ar      1 <1>         0.0369 
      6 C6          6.7102    4.7826   -3.2244 C.ar      1 <1>        -0.0149 
      7 C7          5.6148    5.8187   -3.3639 C.2       1 <1>         0.0840 
      8 C8          5.6680    6.7933   -4.4754 C.2       1 <1>         0.2399 
      9 O9          6.7017    7.6332   -4.6654 O.3       1 <1>        -0.2864 
     10 C10         7.7601    7.5884   -3.6892 C.3       1 <1>         0.0638 
     11 O11         4.7305    6.8499   -5.2530 O.2       1 <1>        -0.3769 
     12 C12         4.5831    5.8454   -2.5114 C.2       1 <1>         0.1068 
     13 O13         3.6337    6.7824   -2.6512 O.3       1 <1>        -0.2488 
     14 C14         2.5983    6.7133   -1.6578 C.3       1 <1>         0.2460 
     15 C15         1.5042    7.6667   -2.0711 C.2       1 <1>         0.0005 
     16 C16         0.3778    7.0035   -2.3255 C.2       1 <1>         0.0294 
     17 C17         0.7326    5.6140   -2.0592 C.2       1 <1>         0.2497 
     18 O18         1.9824    5.4090   -1.6629 O.3       1 <1>        -0.2292 
     19 C19        -0.9507    7.5540   -2.7671 C.3       1 <1>        -0.0323 
     20 O20        -0.0614    4.6976   -2.1828 O.2       1 <1>        -0.3691 
     21 Cl21        6.9725    5.4848   -0.5779 Cl        1 <1>        -0.0770 
     22 H1          6.6683    4.3068   -5.3290 H         1 <1>         0.0554 
     23 H2          8.3817    2.5263   -5.1582 H         1 <1>         0.0599 
     24 H3          9.3755    1.9649   -2.9507 H         1 <1>         0.0557 
     25 H4          8.7169    3.2577   -0.9347 H         1 <1>         0.0604 
     26 H5          8.4394    8.4216   -3.9222 H         1 <1>         0.0574 
     27 H6          8.3462    6.6605   -3.7554 H         1 <1>         0.0574 
     28 H7          7.3863    7.7323   -2.6631 H         1 <1>         0.0574 
     29 H8          4.5407    5.0889   -1.7246 H         1 <1>         0.1339 
     30 H9          2.9729    6.9624   -0.6505 H         1 <1>         0.1227 
     31 H10         1.6271    8.7457   -2.1559 H         1 <1>         0.0707 
     32 H11        -1.1531    8.5127   -2.2663 H         1 <1>         0.0347 
     33 H12        -1.7549    6.8454   -2.5178 H         1 <1>         0.0347 
     34 H13        -0.9368    7.7111   -3.8558 H         1 <1>         0.0347 
@<TRIPOS>BOND
     1    2    1 ar   
     2    2    3 ar   
     3    3    4 ar   
     4    4    5 ar   
     5    5    6 ar   
     6    1    6 ar   
     7    6    7 1    
     8    7    8 1    
     9    8    9 1    
    10    9   10 1    
    11    8   11 2    
    12    7   12 2    
    13   12   13 1    
    14   13   14 1    
    15   14   15 1    
    16   15   16 2    
    17   16   17 1    
    18   17   18 1    
    19   14   18 1    
    20   16   19 1    
    21   17   20 2    
    22    5   21 1    
    23    1   22 1    
    24    2   23 1    
    25    3   24 1    
    26    4   25 1    
    27   10   26 1    
    28   10   27 1    
    29   10   28 1    
    30   12   29 1    
    31   14   30 1    
    32   15   31 1    
    33   19   32 1    
    34   19   33 1    
    35   19   34 1    
@<TRIPOS>SUBSTRUCTURE
     1 ****        2 TEMP              0 ****  ****    0 ROOT 
@<TRIPOS>NORMAL
@<TRIPOS>FF_PBC
FORCE_FIELD_SETUP_FEATURE Force Field Setup information
v1.0  0 0.000000 0.000000 0.000000 0.000000 0.000000 0.000000 NONE 0 0 0 0 1 0 0 0 0 0 0 0 0
@<TRIPOS>RENDERING_ATTRS
ANTIALIASED_LINES 
*
