#	Name:			PISM00871
#	Creating user name:	baoopengkun
#	Creation time:		Thu Dec 13 23:15:37 2018

#	Modifying user name:	baoopengkun
#	Modification time:	Thu Dec 13 23:52:57 2018

@<TRIPOS>MOLECULE
PISM00871
   24    25     1     1     0
SMALL
GAST_HUCK


@<TRIPOS>ATOM
      1 H2          0.7836    0.9745    1.6891 H         1 <1>         0.0549 
      2 C2         -0.9387    2.2443    1.9701 C.ar      1 <1>        -0.0609 
      3 C3         -1.9629    2.9585    1.3413 C.ar      1 <1>         0.0018 
      4 C4         -2.0587    2.9594   -0.0533 C.ar      1 <1>        -0.0470 
      5 C5         -1.1290    2.2506   -0.8192 C.ar      1 <1>         0.0711 
      6 C6         -0.0982    1.5459   -0.1905 C.ar      1 <1>         0.1155 
      7 C7         -0.0087    1.5351    1.2042 C.ar      1 <1>        -0.0291 
      8 Cl8        -1.2556    2.2460   -2.5668 Cl        1 <1>        -0.0781 
      9 O9          0.8391    0.8550   -0.9557 O.3       1 <1>        -0.2678 
     10 C10         2.0366    1.6102   -1.1767 C.3       1 <1>         0.2365 
     11 O11         1.7179    2.8703   -1.8016 O.3       1 <1>        -0.2312 
     12 C12         2.2621    2.8084   -3.0101 C.2       1 <1>         0.2495 
     13 C13         3.0024    1.5861   -3.3031 C.2       1 <1>         0.0292 
     14 C14         2.8718    0.8675   -2.1897 C.2       1 <1>        -0.0018 
     15 C15         3.7349    1.2205   -4.5651 C.3       1 <1>        -0.0323 
     16 O16         2.1542    3.7196   -3.8124 O.2       1 <1>        -0.3691 
     17 H1         -0.8659    2.2404    3.0531 H         1 <1>         0.0617 
     18 Br18       -3.1927    3.9026    2.3554 Br        1 <1>        -0.0599 
     19 H3         -2.8543    3.5101   -0.5438 H         1 <1>         0.0622 
     20 H4          2.5979    1.7775   -0.2426 H         1 <1>         0.1200 
     21 H5          3.2984   -0.1220   -2.0306 H         1 <1>         0.0705 
     22 H6          3.4325    0.2159   -4.8964 H         1 <1>         0.0347 
     23 H7          4.8189    1.2284   -4.3778 H         1 <1>         0.0347 
     24 H8          3.5044    1.9428   -5.3627 H         1 <1>         0.0347 
@<TRIPOS>BOND
     1    7    1 1    
     2    3    2 ar   
     3    4    3 ar   
     4    5    4 ar   
     5    6    5 ar   
     6    6    7 ar   
     7    2    7 ar   
     8    5    8 1    
     9    6    9 1    
    10    9   10 1    
    11   10   11 1    
    12   11   12 1    
    13   12   13 1    
    14   13   14 2    
    15   10   14 1    
    16   13   15 1    
    17   12   16 2    
    18    2   17 1    
    19    3   18 1    
    20    4   19 1    
    21   10   20 1    
    22   14   21 1    
    23   15   22 1    
    24   15   23 1    
    25   15   24 1    
@<TRIPOS>SUBSTRUCTURE
     1 ****        2 TEMP              0 ****  ****    0 ROOT 
@<TRIPOS>NORMAL
@<TRIPOS>FF_PBC
FORCE_FIELD_SETUP_FEATURE Force Field Setup information
v1.0  0 0.000000 0.000000 0.000000 0.000000 0.000000 0.000000 NONE 0 0 0 0 1 0 0 0 0 0 0 0 0
