#	Name:			PISM00963
#	Creating user name:	baoopengkun
#	Creation time:		Thu Dec 13 10:35:31 2018

#	Modifying user name:	baoopengkun
#	Modification time:	Thu Dec 13 11:01:54 2018

@<TRIPOS>MOLECULE
PISM00963
   45    47     1     1     0
SMALL
GAST_HUCK


@<TRIPOS>ATOM
      1 C1         -6.8510   11.3861   -7.9444 C.ar      1 <1>         0.0014 
      2 C2         -6.4326   11.3511   -6.6132 C.ar      1 <1>         0.1287 
      3 C3         -7.3717   11.1598   -5.5986 C.ar      1 <1>         0.0014 
      4 C4         -8.7196   10.9817   -5.9217 C.ar      1 <1>        -0.0438 
      5 C5         -9.1500   10.9871   -7.2556 C.ar      1 <1>        -0.0343 
      6 C6         -8.2013   11.2125   -8.2627 C.ar      1 <1>        -0.0438 
      7 C7        -10.6505   10.7562   -7.5525 C.3       1 <1>         0.0750 
      8 O8        -11.1905    9.8833   -6.5425 O.3       1 <1>        -0.4296 
      9 C9        -10.9109   10.0891   -8.9402 C.3       1 <1>        -0.0421 
     10 C10       -11.3707   12.1286   -7.4362 C.3       1 <1>         0.0760 
     11 N11       -10.9391   12.8576   -6.2507 N.pl3     1 <1>        -0.1855 
     12 N12       -11.5167   12.8194   -5.0171 N.2       1 <1>        -0.1910 
     13 C13       -10.9412   13.5856   -4.1667 C.2       1 <1>         0.0618 
     14 N14        -9.9056   14.1608   -4.9799 N.2       1 <1>        -0.2870 
     15 C15        -9.9653   13.7106   -6.1495 C.2       1 <1>         0.1267 
     16 C16       -12.3696    9.5918   -9.1313 C.3       1 <1>        -0.0254 
     17 C17       -12.4902    8.9020  -10.4983 C.ar      1 <1>        -0.0435 
     18 C18       -12.8215    9.6453  -11.6371 C.ar      1 <1>        -0.0597 
     19 C19       -12.9353    9.0181  -12.8813 C.ar      1 <1>        -0.0546 
     20 C20       -12.7148    7.6431  -12.9945 C.ar      1 <1>         0.0330 
     21 C21       -12.3799    6.8971  -11.8616 C.ar      1 <1>        -0.0546 
     22 C22       -12.2658    7.5256  -10.6181 C.ar      1 <1>        -0.0597 
     23 Cl23      -12.8577    6.8565  -14.5532 Cl        1 <1>        -0.0771 
     24 O24        -5.0833   11.5089   -6.2991 O.3       1 <1>        -0.2963 
     25 C25        -4.3526   10.2733   -6.2376 C.3       1 <1>         0.0687 
     26 H1         -6.1194   11.5500   -8.7290 H         1 <1>         0.0651 
     27 H2         -7.0498   11.1520   -4.5625 H         1 <1>         0.0651 
     28 H3         -9.4358   10.8460   -5.1167 H         1 <1>         0.0824 
     29 H4         -8.4893   11.2614   -9.3051 H         1 <1>         0.0824 
     30 H5        -10.7687    9.0301   -6.5277 H         1 <1>         0.1932 
     31 H6        -10.2381    9.2218   -9.0412 H         1 <1>         0.0199 
     32 H7        -10.6983   10.7900   -9.7621 H         1 <1>         0.0199 
     33 H8        -12.4573   11.9802   -7.3560 H         1 <1>         0.0550 
     34 H9        -11.1666   12.7451   -8.3250 H         1 <1>         0.0550 
     35 H10       -11.1762   13.7540   -3.1170 H         1 <1>         0.0863 
     36 H11        -9.2874   14.0044   -6.9499 H         1 <1>         0.1361 
     37 H12       -13.0799   10.4311   -9.0883 H         1 <1>         0.0419 
     38 H13       -12.6497    8.8805   -8.3389 H         1 <1>         0.0419 
     39 H14       -12.9904   10.7147  -11.5605 H         1 <1>         0.0557 
     40 H15       -13.1945    9.5974  -13.7615 H         1 <1>         0.0606 
     41 H16       -12.2083    5.8292  -11.9501 H         1 <1>         0.0606 
     42 H17       -11.9997    6.9380   -9.7451 H         1 <1>         0.0557 
     43 H18        -4.7656    9.6107   -5.4608 H         1 <1>         0.0597 
     44 H19        -3.3066   10.5029   -5.9855 H         1 <1>         0.0597 
     45 H20        -4.3757    9.7552   -7.2091 H         1 <1>         0.0597 
@<TRIPOS>BOND
     1    2    1 ar   
     2    2    3 ar   
     3    3    4 ar   
     4    4    5 ar   
     5    5    6 ar   
     6    1    6 ar   
     7    5    7 1    
     8    7    8 1    
     9    7    9 1    
    10    7   10 1    
    11   10   11 1    
    12   11   12 1    
    13   12   13 2    
    14   13   14 1    
    15   14   15 2    
    16   11   15 1    
    17    9   16 1    
    18   16   17 1    
    19   17   18 ar   
    20   18   19 ar   
    21   19   20 ar   
    22   20   21 ar   
    23   21   22 ar   
    24   17   22 ar   
    25   20   23 1    
    26    2   24 1    
    27   24   25 1    
    28    1   26 1    
    29    3   27 1    
    30    4   28 1    
    31    6   29 1    
    32    8   30 1    
    33    9   31 1    
    34    9   32 1    
    35   10   33 1    
    36   10   34 1    
    37   13   35 1    
    38   15   36 1    
    39   16   37 1    
    40   16   38 1    
    41   18   39 1    
    42   19   40 1    
    43   21   41 1    
    44   22   42 1    
    45   25   43 1    
    46   25   44 1    
    47   25   45 1    
@<TRIPOS>SUBSTRUCTURE
     1 ****        2 TEMP              0 ****  ****    0 ROOT 
@<TRIPOS>NORMAL
@<TRIPOS>FF_PBC
FORCE_FIELD_SETUP_FEATURE Force Field Setup information
v1.0  0 0.000000 0.000000 0.000000 0.000000 0.000000 0.000000 NONE 0 0 0 0 1 0 0 0 0 0 0 0 0
