#	Name:			PISM00939
#	Creating user name:	baoopengkun
#	Creation time:		Wed Dec 12 22:41:34 2018

#	Modifying user name:	baoopengkun
#	Modification time:	Wed Dec 12 23:10:40 2018

@<TRIPOS>MOLECULE
PISM00939
   24    24     1     1     0
SMALL
GAST_HUCK


@<TRIPOS>ATOM
      1 C1          4.1530   -4.8646    4.9926 C.3       1 <1>         0.0021 
      2 C2          3.2720   -5.8368    5.7276 C.2       1 <1>         0.0688 
      3 C3          3.6012   -6.7463    6.6436 C.2       1 <1>        -0.0593 
      4 C4          2.3917   -7.5189    7.1262 C.3       1 <1>         0.0640 
      5 O5          1.2952   -6.9463    6.3769 O.3       1 <1>        -0.3514 
      6 C6          1.8298   -6.0087    5.6036 C.2       1 <1>         0.2787 
      7 C7          4.9728   -7.0465    7.1964 C.3       1 <1>        -0.0426 
      8 C8          2.1815   -7.3165    8.6081 C.2       1 <1>        -0.1045 
      9 O9          1.1540   -5.3380    4.8414 O.2       1 <1>        -0.3355 
     10 C10         2.5362   -8.9886    6.8097 C.2       1 <1>        -0.1045 
     11 C11         1.8573   -9.6054    5.8341 C.2       1 <1>        -0.0805 
     12 C12         1.1938   -6.5716    9.1206 C.2       1 <1>        -0.0805 
     13 H1          4.9062   -5.4136    4.4084 H         1 <1>         0.0523 
     14 H2          4.6596   -4.2042    5.7117 H         1 <1>         0.0523 
     15 H3          3.5514   -4.2487    4.3075 H         1 <1>         0.0523 
     16 H4          5.2393   -8.0946    6.9977 H         1 <1>         0.0384 
     17 H5          4.9887   -6.8723    8.2819 H         1 <1>         0.0384 
     18 H6          5.7369   -6.4046    6.7346 H         1 <1>         0.0384 
     19 H7          2.8737   -7.8035    9.2963 H         1 <1>         0.0440 
     20 H8          3.2331   -9.5771    7.4080 H         1 <1>         0.0440 
     21 H9          1.1486   -9.0734    5.2002 H         1 <1>         0.0963 
     22 H10         1.9988  -10.6699    5.6468 H         1 <1>         0.0963 
     23 H11         1.0870   -6.4585   10.1995 H         1 <1>         0.0963 
     24 H12         0.4709   -6.0584    8.4874 H         1 <1>         0.0963 
@<TRIPOS>BOND
     1    2    1 1    
     2    2    3 2    
     3    3    4 1    
     4    4    5 1    
     5    5    6 1    
     6    2    6 1    
     7    3    7 1    
     8    4    8 1    
     9    6    9 2    
    10    4   10 1    
    11   10   11 2    
    12    8   12 2    
    13    1   13 1    
    14    1   14 1    
    15    1   15 1    
    16    7   16 1    
    17    7   17 1    
    18    7   18 1    
    19    8   19 1    
    20   10   20 1    
    21   11   21 1    
    22   11   22 1    
    23   12   23 1    
    24   12   24 1    
@<TRIPOS>SUBSTRUCTURE
     1 ****        2 TEMP              0 ****  ****    0 ROOT 
@<TRIPOS>NORMAL
@<TRIPOS>FF_PBC
FORCE_FIELD_SETUP_FEATURE Force Field Setup information
v1.0  0 0.000000 0.000000 0.000000 0.000000 0.000000 0.000000 NONE 0 0 0 0 1 0 0 0 0 0 0 0 0
