#	Name:			PISM01061
#	Creating user name:	Qinrunwen
#	Creation time:		Sun Mar 31 11:23:01 2019

#	Modifying user name:	Qinrunwen
#	Modification time:	Sun Mar 31 11:36:20 2019

@<TRIPOS>MOLECULE
PISM01061
   40    42     1     1     0
SMALL
NO_CHARGES


@<TRIPOS>ATOM
      1 C1         -2.7225    4.9439    7.6143 C.ar      1 <1>         0.0000 
      2 C2         -3.7885    4.1095    7.2553 C.ar      1 <1>         0.0000 
      3 C3         -1.4350    4.6205    7.1755 C.ar      1 <1>         0.0000 
      4 C4         -1.2279    3.5370    6.3168 C.ar      1 <1>         0.0000 
      5 C5         -2.3159    2.7993    5.8391 C.ar      1 <1>         0.0000 
      6 C6         -3.5852    3.0498    6.3661 C.ar      1 <1>         0.0000 
      7 C7         -2.1607    1.7392    4.7700 C.2       1 <1>         0.0000 
      8 N8         -2.9096    0.7123    4.6963 N.2       1 <1>         0.0000 
      9 C9         -1.1641    1.6686    3.6446 C.ar      1 <1>         0.0000 
     10 C10        -1.4651    0.4443    3.0690 C.ar      1 <1>         0.0000 
     11 N11        -2.5573   -0.0903    3.6589 N.pl3     1 <1>         0.0000 
     12 C12        -3.3033   -1.2641    3.2083 C.3       1 <1>         0.0000 
     13 C13        -4.0757   -0.8719    1.9202 C.3       1 <1>         0.0000 
     14 C14        -4.3134   -1.6510    4.3239 C.3       1 <1>         0.0000 
     15 C15        -2.3645   -2.4703    2.9221 C.3       1 <1>         0.0000 
     16 C16        -0.1547    2.4746    3.1171 C.ar      1 <1>         0.0000 
     17 N17         0.6665    1.8944    2.2134 N.ar      1 <1>         0.0000 
     18 C18         0.3745    0.6910    1.6675 C.ar      1 <1>         0.0000 
     19 N19        -0.7005   -0.0245    2.0653 N.ar      1 <1>         0.0000 
     20 N20        -0.0111    3.7752    3.4536 N.pl3     1 <1>         0.0000 
     21 C21        -2.9404    6.1936    8.4756 C.3       1 <1>         0.0000 
     22 H1         -4.7796    4.2800    7.6626 H         1 <1>         0.0000 
     23 H2         -0.5871    5.2139    7.5077 H         1 <1>         0.0000 
     24 H3         -0.2162    3.2732    6.0311 H         1 <1>         0.0000 
     25 H4         -4.4212    2.4222    6.0767 H         1 <1>         0.0000 
     26 H5         -3.3722   -0.6115    1.1161 H         1 <1>         0.0000 
     27 H6         -4.7110    0.0052    2.1170 H         1 <1>         0.0000 
     28 H7         -4.7132   -1.6991    1.5730 H         1 <1>         0.0000 
     29 H8         -4.9899   -0.8123    4.5425 H         1 <1>         0.0000 
     30 H9         -3.7772   -1.9093    5.2483 H         1 <1>         0.0000 
     31 H10        -4.9259   -2.5146    4.0249 H         1 <1>         0.0000 
     32 H11        -2.9550   -3.3715    2.6940 H         1 <1>         0.0000 
     33 H12        -1.7374   -2.6740    3.8027 H         1 <1>         0.0000 
     34 H13        -1.7051   -2.2781    2.0638 H         1 <1>         0.0000 
     35 H14         1.0162    0.2892    0.8917 H         1 <1>         0.0000 
     36 H15        -0.8062    4.3013    3.8453 H         1 <1>         0.0000 
     37 H16         0.8623    4.2734    3.2330 H         1 <1>         0.0000 
     38 H17        -2.2547    6.1817    9.3351 H         1 <1>         0.0000 
     39 H18        -3.9708    6.2609    8.8551 H         1 <1>         0.0000 
     40 H19        -2.7315    7.0871    7.8665 H         1 <1>         0.0000 
@<TRIPOS>BOND
     1    1    2 ar   
     2    1    3 ar   
     3    3    4 ar   
     4    4    5 ar   
     5    6    5 ar   
     6    2    6 ar   
     7    5    7 1    
     8    7    8 2    
     9    7    9 1    
    10    9   10 ar   
    11   10   11 1    
    12    8   11 1    
    13   11   12 1    
    14   12   13 1    
    15   12   14 1    
    16   12   15 1    
    17    9   16 ar   
    18   16   17 ar   
    19   17   18 ar   
    20   19   18 ar   
    21   10   19 ar   
    22   16   20 1    
    23    1   21 1    
    24    2   22 1    
    25    3   23 1    
    26    4   24 1    
    27    6   25 1    
    28   13   26 1    
    29   13   27 1    
    30   13   28 1    
    31   14   29 1    
    32   14   30 1    
    33   14   31 1    
    34   15   32 1    
    35   15   33 1    
    36   15   34 1    
    37   18   35 1    
    38   20   36 1    
    39   20   37 1    
    40   21   38 1    
    41   21   39 1    
    42   21   40 1    
@<TRIPOS>SUBSTRUCTURE
     1 ****        1 TEMP              0 ****  ****    0 ROOT 
@<TRIPOS>NORMAL
@<TRIPOS>FF_PBC
FORCE_FIELD_SETUP_FEATURE Force Field Setup information
v1.0  0 0.000000 0.000000 0.000000 0.000000 0.000000 0.000000 NONE 0 0 0 0 0 0 0 0 0 0 0 0 0
