#	Name:			PISM00884.1
#	Creating user name:	baoopengkun
#	Creation time:		Fri Dec 14 09:30:18 2018

#	Modifying user name:	baoopengkun
#	Modification time:	Fri Dec 14 09:37:31 2018

@<TRIPOS>MOLECULE
PISM00884.1
   41    43     1     1     0
SMALL
GAST_HUCK


@<TRIPOS>ATOM
      1 C1          0.2744    4.5322    3.2711 C.ar      1 <1>        -0.0636 
      2 C2         -0.8774    5.0660    2.6837 C.ar      1 <1>        -0.0462 
      3 C3         -1.3936    4.4651    1.5312 C.ar      1 <1>        -0.0636 
      4 C4         -0.7606    3.3515    0.9715 C.ar      1 <1>        -0.0659 
      5 C5          0.3933    2.8170    1.5550 C.ar      1 <1>        -0.0257 
      6 C6          0.9079    3.4195    2.7094 C.ar      1 <1>        -0.0659 
      7 C7          1.0373    1.6059    0.9115 C.2       1 <1>         0.0658 
      8 N8          0.5260    0.9947   -0.2922 N.2       1 <1>        -0.2181 
      9 N9          1.3824   -0.0181   -0.5055 N.2       1 <1>        -0.0868 
     10 N10         2.3182   -0.0451    0.4657 N.pl3     1 <1>        -0.1247 
     11 C11         2.1201    0.9287    1.3097 C.2       1 <1>         0.0910 
     12 C12         3.4047   -1.0073    0.5179 C.3       1 <1>         0.2440 
     13 C13         2.8960   -2.2615    1.1851 C.2       1 <1>         0.0017 
     14 C14         3.5673   -2.4959    2.3110 C.2       1 <1>         0.0295 
     15 C15         4.5218   -1.3946    2.3755 C.2       1 <1>         0.2498 
     16 O16         4.4778   -0.5394    1.3612 O.3       1 <1>        -0.2284 
     17 O17         5.3115   -1.2619    3.2939 O.2       1 <1>        -0.3691 
     18 C18         3.3794   -3.6213    3.2914 C.3       1 <1>        -0.0323 
     19 C19        -2.6654    5.8273    4.2879 C.3       1 <1>        -0.0439 
     20 C20        -3.3970    7.0349    4.9342 C.3       1 <1>        -0.0542 
     21 C21        -1.5693    6.2929    3.2948 C.3       1 <1>        -0.0207 
     22 C22        -4.4926    6.5637    5.9256 C.3       1 <1>        -0.0651 
     23 H1          0.6828    4.9810    4.1711 H         1 <1>         0.0549 
     24 H2         -2.2910    4.8605    1.0660 H         1 <1>         0.0549 
     25 H3         -1.1740    2.9009    0.0748 H         1 <1>         0.0568 
     26 H4          1.8019    3.0366    3.1862 H         1 <1>         0.0568 
     27 H5          2.7384    1.1371    2.1805 H         1 <1>         0.1060 
     28 H6          3.7788   -1.2131   -0.4979 H         1 <1>         0.1243 
     29 H7          2.0875   -2.8803    0.7975 H         1 <1>         0.0709 
     30 H8          3.8744   -4.5264    2.9095 H         1 <1>         0.0347 
     31 H9          2.3080   -3.8280    3.4326 H         1 <1>         0.0347 
     32 H10         3.8212   -3.3545    4.2633 H         1 <1>         0.0347 
     33 H11        -2.1984    5.2141    5.0764 H         1 <1>         0.0287 
     34 H12        -3.3953    5.1998    3.7501 H         1 <1>         0.0287 
     35 H13        -3.8643    7.6484    4.1458 H         1 <1>         0.0264 
     36 H14        -2.6682    7.6625    5.4738 H         1 <1>         0.0264 
     37 H15        -2.0177    6.9025    2.4940 H         1 <1>         0.0421 
     38 H16        -0.8287    6.9202    3.8162 H         1 <1>         0.0421 
     39 H17        -4.0469    5.9635    6.7342 H         1 <1>         0.0230 
     40 H18        -5.2448    5.9514    5.4041 H         1 <1>         0.0230 
     41 H19        -4.9985    7.4338    6.3734 H         1 <1>         0.0230 
@<TRIPOS>BOND
     1    2    1 ar   
     2    2    3 ar   
     3    3    4 ar   
     4    4    5 ar   
     5    5    6 ar   
     6    1    6 ar   
     7    5    7 1    
     8    7    8 1    
     9    8    9 2    
    10    9   10 1    
    11   10   11 1    
    12    7   11 2    
    13   10   12 1    
    14   12   13 1    
    15   13   14 2    
    16   14   15 1    
    17   15   16 1    
    18   12   16 1    
    19   15   17 2    
    20   14   18 1    
    21   21   19 1    
    22   19   20 1    
    23    2   21 1    
    24   20   22 1    
    25    1   23 1    
    26    3   24 1    
    27    4   25 1    
    28    6   26 1    
    29   11   27 1    
    30   12   28 1    
    31   13   29 1    
    32   18   30 1    
    33   18   31 1    
    34   18   32 1    
    35   19   33 1    
    36   19   34 1    
    37   20   35 1    
    38   20   36 1    
    39   21   37 1    
    40   21   38 1    
    41   22   39 1    
    42   22   40 1    
    43   22   41 1    
@<TRIPOS>SUBSTRUCTURE
     1 ****        2 TEMP              0 ****  ****    0 ROOT 
@<TRIPOS>NORMAL
@<TRIPOS>FF_PBC
FORCE_FIELD_SETUP_FEATURE Force Field Setup information
v1.0  0 0.000000 0.000000 0.000000 0.000000 0.000000 0.000000 NONE 0 0 0 0 1 0 0 0 0 0 0 0 0
