#	Name:			PISM00288
#	Creating user name:	baoopengkun
#	Creation time:		Sun Dec 16 03:19:57 2018

#	Modifying user name:	baoopengkun
#	Modification time:	Sun Dec 16 03:26:27 2018

@<TRIPOS>MOLECULE
PISM00288
   50    52     1     1     0
SMALL
GAST_HUCK


@<TRIPOS>ATOM
      1 C1        -18.9905   17.2971   44.0683 C.ar      1 <1>        -0.0711 
      2 C2        -18.1366   16.4314   43.3766 C.ar      1 <1>        -0.0546 
      3 C3        -17.2393   15.6392   44.1013 C.ar      1 <1>        -0.0336 
      4 C4        -17.2197   15.6872   45.4976 C.ar      1 <1>         0.1285 
      5 C5        -18.1204   16.5027   46.1888 C.ar      1 <1>         0.0071 
      6 C6        -18.9898   17.3267   45.4653 C.ar      1 <1>        -0.0668 
      7 C7        -18.1516   16.4830   47.7206 C.3       1 <1>         0.1207 
      8 S8        -19.0377   15.0383   48.3427 S.o2      1 <1>         0.0663 
      9 O9        -19.3453   15.2899   49.7367 O.2       1 <1>        -0.1484 
     10 O10       -18.2897   13.8442   48.0154 O.2       1 <1>        -0.1484 
     11 N11       -20.4700   15.0887   47.4900 N.am      1 <1>        -0.1984 
     12 C12       -20.6277   14.9187   46.0844 C.ar      1 <1>         0.0439 
     13 C13       -19.7911   14.0761   45.3446 C.ar      1 <1>        -0.0617 
     14 C14       -19.9478   13.9514   43.9611 C.ar      1 <1>        -0.0607 
     15 C15       -21.0409   14.5367   43.3096 C.ar      1 <1>         0.0505 
     16 C16       -21.8056   15.4612   44.0301 C.ar      1 <1>        -0.0322 
     17 C17       -21.6373   15.6131   45.4103 C.ar      1 <1>        -0.0529 
     18 C18       -22.8165   16.3105   43.2625 C.3       1 <1>        -0.0077 
     19 C19       -22.2385   16.5200   41.8449 C.3       1 <1>         0.0497 
     20 C20       -21.9384   15.1627   41.2685 C.2       1 <1>         0.1999 
     21 O21       -22.2456   14.9668   40.1037 O.2       1 <1>        -0.3812 
     22 N22       -21.3743   14.2479   42.0197 N.pl3     1 <1>        -0.2378 
     23 C23       -21.1721   12.9064   41.4489 C.3       1 <1>         0.0446 
     24 C24       -22.5417   12.1782   41.3671 C.3       1 <1>        -0.0331 
     25 C25       -22.3990   10.7474   40.7841 C.3       1 <1>        -0.0632 
     26 F26       -16.3415   14.9482   46.1700 F         1 <1>        -0.1908 
     27 H1        -19.6628   17.9526   43.5260 H         1 <1>         0.0506 
     28 C28       -18.1814   16.3483   41.8458 C.3       1 <1>        -0.0352 
     29 H29       -16.5526   14.9768   43.5860 H         1 <1>         0.0525 
     30 H2        -19.6751   17.9911   45.9820 H         1 <1>         0.0529 
     31 H3        -18.6611   17.3782   48.1060 H         1 <1>         0.0666 
     32 H4        -17.1296   16.4682   48.1273 H         1 <1>         0.0666 
     33 H5        -21.2806   15.3288   48.0244 H         1 <1>         0.2114 
     34 H6        -19.0097   13.5034   45.8226 H         1 <1>         0.0398 
     35 H7        -19.1924   13.4039   43.4100 H         1 <1>         0.0470 
     36 H8        -22.2904   16.2810   45.9613 H         1 <1>         0.0392 
     37 H9        -22.9748   17.2848   43.7522 H         1 <1>         0.0425 
     38 H10       -23.7744   15.7679   43.2188 H         1 <1>         0.0425 
     39 H11       -21.3054   17.1006   41.8743 H         1 <1>         0.0529 
     40 H12       -22.9669   17.0573   41.2164 H         1 <1>         0.0529 
     41 H13       -20.5182   12.2524   42.0408 H         1 <1>         0.0550 
     42 H14       -20.7232   12.9869   40.4449 H         1 <1>         0.0550 
     43 H15       -23.2411   12.7477   40.7344 H         1 <1>         0.0284 
     44 H16       -22.9721   12.1204   42.3809 H         1 <1>         0.0284 
     45 H17       -21.9761   10.7895   39.7682 H         1 <1>         0.0230 
     46 H18       -23.3853   10.2595   40.7332 H         1 <1>         0.0230 
     47 H19       -21.7393   10.1337   41.4172 H         1 <1>         0.0230 
     48 H20       -18.8570   15.5316   41.5513 H         1 <1>         0.0377 
     49 H21       -17.1788   16.1469   41.4396 H         1 <1>         0.0377 
     50 H22       -18.5472   17.2891   41.4080 H         1 <1>         0.0377 
@<TRIPOS>BOND
     1    2    1 ar   
     2    2    3 ar   
     3    3    4 ar   
     4    4    5 ar   
     5    5    6 ar   
     6    1    6 ar   
     7    5    7 1    
     8    7    8 1    
     9    8    9 2    
    10    8   10 2    
    11    8   11 1    
    12   11   12 1    
    13   12   13 ar   
    14   13   14 ar   
    15   14   15 ar   
    16   15   16 ar   
    17   16   17 ar   
    18   12   17 ar   
    19   16   18 1    
    20   18   19 1    
    21   19   20 1    
    22   20   21 2    
    23   20   22 1    
    24   15   22 1    
    25   22   23 1    
    26   23   24 1    
    27   24   25 1    
    28    4   26 1    
    29    1   27 1    
    30    2   28 1    
    31    3   29 1    
    32    6   30 1    
    33    7   31 1    
    34    7   32 1    
    35   11   33 1    
    36   13   34 1    
    37   14   35 1    
    38   17   36 1    
    39   18   37 1    
    40   18   38 1    
    41   19   39 1    
    42   19   40 1    
    43   23   41 1    
    44   23   42 1    
    45   24   43 1    
    46   24   44 1    
    47   25   45 1    
    48   25   46 1    
    49   25   47 1    
    50   28   48 1    
    51   28   49 1    
    52   28   50 1    
@<TRIPOS>SUBSTRUCTURE
     1 ****        2 TEMP              0 ****  ****    0 ROOT 
@<TRIPOS>NORMAL
@<TRIPOS>FF_PBC
FORCE_FIELD_SETUP_FEATURE Force Field Setup information
v1.0  0 0.000000 0.000000 0.000000 0.000000 0.000000 0.000000 NONE 0 0 0 0 1 0 0 0 0 0 0 0 0
