#	Name:			PISM00580
#	Creating user name:	malab
#	Creation time:		Fri Apr 05 22:35:04 2019

#	Modifying user name:	malab
#	Modification time:	Fri Apr 05 22:35:29 2019

@<TRIPOS>MOLECULE
PISM00580
   23    23     1     1     0
SMALL
GAST_HUCK


@<TRIPOS>ATOM
      1 O1         24.7346   11.3550   -8.8023 O.2       1 <1>        -0.3612 
      2 C2         24.9875   12.5080   -8.4879 C.2       1 <1>         0.2565 
      3 O3         23.9926   13.3845   -8.3022 O.3       1 <1>        -0.2945 
      4 C4         26.4207   12.9685   -8.3033 C.ar      1 <1>         0.0747 
      5 C5         26.6484   14.2925   -7.9055 C.ar      1 <1>        -0.0463 
      6 C6         27.9466   14.7748   -7.7180 C.ar      1 <1>        -0.0627 
      7 C7         29.0394   13.9319   -7.9279 C.ar      1 <1>        -0.0631 
      8 C8         28.8230   12.6111   -8.3267 C.ar      1 <1>        -0.0425 
      9 C9         27.5245   12.1281   -8.5160 C.ar      1 <1>         0.0510 
     10 S10        27.3110   10.4487   -9.0519 S.3       1 <1>        -0.0081 
     11 Hg11       27.3692   10.8527  -11.0907 Hg        1 <1>         0.0000 
     12 C12        26.9679   12.7137  -11.6229 C.3       1 <1>        -0.0562 
     13 C13        27.0012   12.8203  -13.1640 C.3       1 <1>        -0.0653 
     14 H1         23.1241   13.0193   -8.4383 H         1 <1>         0.2521 
     15 H2         25.8154   14.9668   -7.7359 H         1 <1>         0.0654 
     16 H3         28.1065   15.8035   -7.4095 H         1 <1>         0.0572 
     17 H4         30.0500   14.3005   -7.7825 H         1 <1>         0.0637 
     18 H5         29.6715   11.9552   -8.4920 H         1 <1>         0.0578 
     19 H10        27.7180   13.3833  -11.1731 H         1 <1>         0.0263 
     20 H11        25.9711   12.9836  -11.2406 H         1 <1>         0.0263 
     21 H12        26.2566   12.1355  -13.5980 H         1 <1>         0.0230 
     22 H13        27.9994   12.5415  -13.5345 H         1 <1>         0.0230 
     23 H14        26.7734   13.8489  -13.4855 H         1 <1>         0.0230 
@<TRIPOS>BOND
     1    2    1 2    
     2    2    3 1    
     3    2    4 1    
     4    4    5 ar   
     5    5    6 ar   
     6    6    7 ar   
     7    7    8 ar   
     8    8    9 ar   
     9    4    9 ar   
    10    9   10 1    
    11   10   11 1    
    12   11   12 1    
    13   12   13 1    
    14    3   14 1    
    15    5   15 1    
    16    6   16 1    
    17    7   17 1    
    18    8   18 1    
    19   12   19 1    
    20   12   20 1    
    21   13   21 1    
    22   13   22 1    
    23   13   23 1    
@<TRIPOS>SUBSTRUCTURE
     1 ****        2 TEMP              0 ****  ****    0 ROOT 
@<TRIPOS>NORMAL
@<TRIPOS>FF_PBC
FORCE_FIELD_SETUP_FEATURE Force Field Setup information
v1.0  0 0.000000 0.000000 0.000000 0.000000 0.000000 0.000000 NONE 0 0 0 0 0 0 0 0 0 0 0 0 0
