#	Name:			PISM01208
#	Creating user name:	14062
#	Creation time:		Sun Apr 07 00:46:42 2019

#	Modifying user name:	14062
#	Modification time:	Sun Apr 07 00:48:26 2019

@<TRIPOS>MOLECULE
PISM01208
   29    31     1     1     0
SMALL
GAST_HUCK


@<TRIPOS>ATOM
      1 C1        -16.2399    9.3869   -9.1610 C.ar      1 <1>        -0.0496 
      2 C2        -16.8236   10.5328   -8.6125 C.ar      1 <1>        -0.0649 
      3 C3        -16.2350   11.1558   -7.5077 C.ar      1 <1>        -0.0632 
      4 C4        -15.0637   10.6327   -6.9510 C.ar      1 <1>        -0.0172 
      5 C5        -14.4776    9.4863   -7.4942 C.ar      1 <1>         0.1541 
      6 C6        -15.0692    8.8701   -8.5981 C.ar      1 <1>         0.0639 
      7 C7        -14.3861    7.6413   -9.1407 C.2       1 <1>         0.1315 
      8 C8        -13.1862    7.1696   -8.4361 C.2       1 <1>         0.1058 
      9 C9        -12.7169    7.8533   -7.3831 C.2       1 <1>         0.1373 
     10 O10       -13.3063    8.9710   -6.9254 O.3       1 <1>        -0.2233 
     11 C11       -12.4899    5.9460   -8.8756 C.2       1 <1>         0.1443 
     12 C12       -10.9934    5.9493   -9.1133 C.ar      1 <1>         0.0410 
     13 C13       -10.3525    7.1500   -9.4447 C.ar      1 <1>        -0.0439 
     14 C14        -8.9708    7.1872   -9.6525 C.ar      1 <1>        -0.0562 
     15 C15        -8.2196    6.0135   -9.5582 C.ar      1 <1>        -0.0571 
     16 C16        -8.8554    4.8094   -9.2458 C.ar      1 <1>        -0.0423 
     17 C17       -10.2332    4.7761   -9.0114 C.ar      1 <1>         0.0582 
     18 O18       -14.8141    7.0784  -10.1344 O.2       1 <1>        -0.4102 
     19 O19       -13.1402    4.9270   -9.0342 O.2       1 <1>        -0.3887 
     20 Cl20      -10.9688    3.2435   -8.5806 Cl        1 <1>        -0.0648 
     21 H1        -16.6928    8.9005  -10.0195 H         1 <1>         0.0643 
     22 H2        -17.7335   10.9383   -9.0449 H         1 <1>         0.0556 
     23 H3        -16.6880   12.0463   -7.0819 H         1 <1>         0.0631 
     24 H4        -14.6044   11.1146   -6.0942 H         1 <1>         0.0582 
     25 H5        -11.8266    7.5117   -6.8541 H         1 <1>         0.1457 
     26 H6        -10.9225    8.0672   -9.5524 H         1 <1>         0.0668 
     27 H7         -8.4809    8.1270   -9.8902 H         1 <1>         0.0630 
     28 H8         -7.1471    6.0367   -9.7274 H         1 <1>         0.0652 
     29 H9         -8.2763    3.8936   -9.1819 H         1 <1>         0.0635 
@<TRIPOS>BOND
     1    2    1 ar   
     2    2    3 ar   
     3    3    4 ar   
     4    4    5 ar   
     5    5    6 ar   
     6    1    6 ar   
     7    6    7 1    
     8    7    8 1    
     9    8    9 2    
    10    9   10 1    
    11    5   10 1    
    12    8   11 1    
    13   11   12 1    
    14   12   13 ar   
    15   13   14 ar   
    16   14   15 ar   
    17   15   16 ar   
    18   16   17 ar   
    19   12   17 ar   
    20    7   18 2    
    21   11   19 2    
    22   17   20 1    
    23    1   21 1    
    24    2   22 1    
    25    3   23 1    
    26    4   24 1    
    27    9   25 1    
    28   13   26 1    
    29   14   27 1    
    30   15   28 1    
    31   16   29 1    
@<TRIPOS>SUBSTRUCTURE
     1 ****        2 TEMP              0 ****  ****    0 ROOT 
@<TRIPOS>NORMAL
@<TRIPOS>FF_PBC
FORCE_FIELD_SETUP_FEATURE Force Field Setup information
v1.0  0 0.000000 0.000000 0.000000 0.000000 0.000000 0.000000 NONE 0 0 0 0 1 0 0 0 0 0 0 0 0
