#	Name:			PISM00573
#	Creating user name:	baoopengkun
#	Creation time:		Wed Dec 19 10:55:03 2018

#	Modifying user name:	baoopengkun
#	Modification time:	Wed Dec 19 10:59:23 2018

@<TRIPOS>MOLECULE
PISM00573
   13    13     1     1     0
SMALL
USER_CHARGES


@<TRIPOS>ATOM
      1 Cl1        22.3705   28.9061  -42.9552 Cl        1 <1>         0.0000 
      2 C2         21.4595   28.2966  -41.5903 C.ar      1 <1>         0.0000 
      3 C3         20.7172   27.1185  -41.7097 C.ar      1 <1>         0.0000 
      4 C4         19.9952   26.6459  -40.6091 C.ar      1 <1>         0.0000 
      5 C5         20.0379   27.3712  -39.4143 C.ar      1 <1>         0.0000 
      6 C6         20.7957   28.5435  -39.3478 C.ar      1 <1>         0.0000 
      7 N7         21.4824   28.9757  -40.4252 N.ar      1 <1>         0.0000 
      8 Cl8        20.8627   29.4669  -37.8621 Cl        1 <1>         0.0000 
      9 C9         19.1805   25.3740  -40.7018 C.2       1 <1>         0.0000 
     10 O10        19.1374   24.7330  -41.7392 O.2       1 <1>         0.0000 
     11 H3         18.6180   25.0080  -39.8436 H         1 <1>         0.0000 
     12 H1         20.7063   26.5809  -42.6518 H         1 <1>         0.0000 
     13 H2         19.4891   27.0314  -38.5423 H         1 <1>         0.0000 
@<TRIPOS>BOND
     1    2    1 1    
     2    2    3 ar   
     3    3    4 ar   
     4    4    5 ar   
     5    5    6 ar   
     6    6    7 ar   
     7    2    7 ar   
     8    6    8 1    
     9    4    9 1    
    10    9   10 2    
    11    9   11 1    
    12    3   12 1    
    13    5   13 1    
@<TRIPOS>SUBSTRUCTURE
     1 ****        2 TEMP              0 ****  ****    0 ROOT 
@<TRIPOS>NORMAL
@<TRIPOS>FF_PBC
FORCE_FIELD_SETUP_FEATURE Force Field Setup information
v1.0  0 0.000000 0.000000 0.000000 0.000000 0.000000 0.000000 NONE 0 0 0 0 0 0 0 0 0 0 0 0 0
