#	Name:			PISM00511
#	Creating user name:	malab
#	Creation time:		Thu Apr 04 11:57:39 2019

#	Modifying user name:	malab
#	Modification time:	Thu Apr 04 11:57:47 2019

@<TRIPOS>MOLECULE
PISM00511
  107   115     1     1     0
SMALL
GAST_HUCK


@<TRIPOS>ATOM
      1 C1         17.2088    3.3303   -6.3879 C.3       1 <1>         0.1431 
      2 C2         17.6045    1.9717   -6.8864 C.2       1 <1>         0.0140 
      3 C3         18.3882    1.1674   -6.1636 C.2       1 <1>        -0.0529 
      4 C4         18.9602    1.5851   -4.8196 C.3       1 <1>         0.0635 
      5 C5         19.0127    3.1027   -4.5904 C.3       1 <1>        -0.0084 
      6 C6         17.5421    3.4705   -4.8760 C.3       1 <1>         0.1071 
      7 C7         20.4685    1.1859   -4.7396 C.3       1 <1>        -0.0406 
      8 C8         21.2761    2.5183   -4.6283 C.3       1 <1>        -0.0138 
      9 C9         20.3084    3.5355   -5.3236 C.3       1 <1>         0.0486 
     10 C10        20.9822    0.0862   -3.7829 C.3       1 <1>        -0.0653 
     11 C11        22.6866    2.2570   -5.2194 C.3       1 <1>        -0.0465 
     12 C12        23.2602    1.2975   -4.1400 C.3       1 <1>         0.0482 
     13 C13        22.5137   -0.0706   -4.0552 C.3       1 <1>        -0.0563 
     14 C14        22.8824    2.0797   -2.9215 C.2       1 <1>        -0.0328 
     15 C15        21.6504    2.9039   -3.1537 C.3       1 <1>        -0.0133 
     16 C16        23.5666    2.0425   -1.7732 C.2       1 <1>        -0.0406 
     17 O17        24.6826    1.1454   -4.2461 O.3       1 <1>        -0.4347 
     18 O18        17.9010    1.2886   -3.9071 O.3       1 <1>        -0.3321 
     19 C19        17.1267    4.8571   -4.3059 C.3       1 <1>        -0.0456 
     20 C20        17.0092    2.2972   -4.0562 C.2       1 <1>         0.2558 
     21 O21        15.9113    2.2890   -3.5256 O.2       1 <1>        -0.3128 
     22 O22        15.8001    3.4244   -6.6668 O.3       1 <1>        -0.3589 
     23 C23        20.6931    4.9796   -5.1240 C.2       1 <1>         0.1788 
     24 O24        20.0919    5.6470   -4.2999 O.2       1 <1>        -0.3968 
     25 N25        21.7000    5.4926   -5.8639 N.am      1 <1>        -0.2845 
     26 C26        22.1524    6.8623   -5.6265 C.3       1 <1>         0.0543 
     27 C27        23.0086    6.9059   -4.3388 C.3       1 <1>         0.0678 
     28 O28        23.5319    8.2402   -4.1815 O.3       1 <1>        -0.3755 
     29 C29        24.3578    8.3925   -3.0087 C.3       1 <1>         0.0711 
     30 C30        24.8483    9.8559   -2.9406 C.3       1 <1>         0.0711 
     31 O31        25.6749   10.0063   -1.7679 O.3       1 <1>        -0.3755 
     32 C32        26.1768   11.3456   -1.5885 C.3       1 <1>         0.0678 
     33 C33        27.0367   11.3740   -0.3005 C.3       1 <1>         0.0538 
     34 N34        27.5618   12.7057    0.0035 N.am      1 <1>        -0.2832 
     35 C35        28.1940   12.9135    1.1814 C.2       1 <1>         0.2099 
     36 O36        28.3540   11.9948    1.9674 O.2       1 <1>        -0.3824 
     37 C37        28.7353   14.2741    1.5763 C.ar      1 <1>         0.0612 
     38 C38        29.8110   14.3417    2.4698 C.ar      1 <1>        -0.0143 
     39 C39        30.3649   15.5696    2.8513 C.ar      1 <1>         0.0829 
     40 C40        29.8119   16.7523    2.3452 C.ar      1 <1>         0.0274 
     41 C41        28.7369   16.6957    1.4539 C.ar      1 <1>        -0.0343 
     42 C42        28.1885   15.4650    1.0843 C.ar      1 <1>        -0.0309 
     43 C43        31.5494   15.5934    3.7964 C.2       1 <1>         0.2660 
     44 O44        31.9476   14.5498    4.2888 O.2       1 <1>        -0.3548 
     45 O45        32.1640   16.7394    4.0952 O.3       1 <1>        -0.2929 
     46 C46        30.3438   18.1105    2.7458 C.2       1 <1>         0.0270 
     47 C47        31.0387   18.8676    1.8878 C.2       1 <1>         0.0406 
     48 C48        31.3390   18.4156    0.5088 C.2       1 <1>        -0.0489 
     49 C49        32.0097   19.2000   -0.3417 C.2       1 <1>        -0.0361 
     50 C50        32.4658   20.5284    0.0888 C.2       1 <1>         0.0685 
     51 C51        32.2030   20.9742    1.4645 C.2       1 <1>        -0.0187 
     52 C52        31.5320   20.1969    2.3212 C.2       1 <1>         0.1284 
     53 O53        31.3184   20.6440    3.5659 O.3       1 <1>        -0.2387 
     54 C54        30.6121   19.8765    4.4925 C.ar      1 <1>         0.1461 
     55 C55        30.0907   18.6282    4.1430 C.ar      1 <1>         0.0433 
     56 C56        29.3568   17.8954    5.0831 C.ar      1 <1>        -0.0502 
     57 C57        29.1722   18.3941    6.3762 C.ar      1 <1>        -0.0281 
     58 C58        29.7103   19.6363    6.7343 C.ar      1 <1>         0.0947 
     59 C59        30.4255   20.3708    5.7855 C.ar      1 <1>         0.0163 
     60 O60        33.0601   21.2531   -0.6916 O.2       1 <1>        -0.4424 
     61 O61        29.5475   20.1593    8.0205 O.3       1 <1>        -0.3271 
     62 H1         17.7650    4.0889   -6.9655 H         1 <1>         0.1020 
     63 H2         17.2207    1.6475   -7.8551 H         1 <1>         0.1556 
     64 H3         18.6055    0.1699   -6.5496 H         1 <1>         0.0491 
     65 H4         19.1516    3.3515   -3.5258 H         1 <1>         0.0204 
     66 H5         20.7122    0.7774   -5.7349 H         1 <1>         0.0190 
     67 H6         20.2324    3.3246   -6.4018 H         1 <1>         0.0535 
     68 H7         20.4595   -0.8643   -3.9812 H         1 <1>         0.0249 
     69 H8         20.7824    0.3541   -2.7353 H         1 <1>         0.0249 
     70 H9         23.2817    3.1843   -5.2455 H         1 <1>         0.0176 
     71 H10        22.6994    1.8175   -6.2286 H         1 <1>         0.0176 
     72 H11        22.9635   -0.6815   -3.2560 H         1 <1>         0.0167 
     73 H12        22.6698   -0.5981   -5.0100 H         1 <1>         0.0167 
     74 H13        21.9414    3.9621   -3.0760 H         1 <1>         0.0432 
     75 H14        20.9117    2.6779   -2.3720 H         1 <1>         0.0432 
     76 H15        23.2510    2.6323   -0.9141 H         1 <1>         0.1257 
     77 H16        24.4538    1.4159   -1.6879 H         1 <1>         0.1257 
     78 H17        24.9244    0.7034   -5.0526 H         1 <1>         0.1919 
     79 H18        17.5645    5.6638   -4.9123 H         1 <1>         0.0225 
     80 H19        17.4623    4.9802   -3.2650 H         1 <1>         0.0225 
     81 H20        16.0328    4.9659   -4.3089 H         1 <1>         0.0225 
     82 H21        15.4165    4.2742   -6.4772 H         1 <1>         0.2177 
     83 H22        22.1769    4.9410   -6.5506 H         1 <1>         0.1851 
     84 H23        21.2973    7.5509   -5.5236 H         1 <1>         0.0543 
     85 H24        22.7680    7.2213   -6.4684 H         1 <1>         0.0543 
     86 H25        23.8267    6.1734   -4.4362 H         1 <1>         0.0580 
     87 H26        22.3819    6.6272   -3.4761 H         1 <1>         0.0580 
     88 H27        25.2362    7.7280   -3.0533 H         1 <1>         0.0583 
     89 H28        23.7889    8.1699   -2.0910 H         1 <1>         0.0583 
     90 H29        23.9678   10.5177   -2.8950 H         1 <1>         0.0583 
     91 H30        25.4166   10.0811   -3.8579 H         1 <1>         0.0583 
     92 H31        25.3449   12.0605   -1.4764 H         1 <1>         0.0580 
     93 H32        26.7992   11.6476   -2.4469 H         1 <1>         0.0580 
     94 H33        27.8732   10.6658   -0.4190 H         1 <1>         0.0542 
     95 H34        26.4060   11.0212    0.5327 H         1 <1>         0.0542 
     96 H35        27.4791   13.4230   -0.6865 H         1 <1>         0.1846 
     97 H36        30.2257   13.4217    2.8700 H         1 <1>         0.0741 
     98 H37        28.3209   17.6145    1.0507 H         1 <1>         0.0706 
     99 H38        27.3288   15.4545    0.4237 H         1 <1>         0.0716 
    100 H39        32.8925   16.6065    4.6927 H         1 <1>         0.2523 
    101 H40        31.0274   17.4350    0.1487 H         1 <1>         0.0663 
    102 H41        32.2321   18.8760   -1.3591 H         1 <1>         0.0526 
    103 H42        32.5640   21.9529    1.7810 H         1 <1>         0.0197 
    104 H43        28.9233   16.9359    4.8218 H         1 <1>         0.0651 
    105 H44        28.6087   17.8090    7.0962 H         1 <1>         0.0526 
    106 H45        30.8399   21.3358    6.0555 H         1 <1>         0.0505 
    107 H46        29.0489   19.6080    8.6134 H         1 <1>         0.2529 
@<TRIPOS>BOND
     1    2    1 1    
     2    2    3 2    
     3    3    4 1    
     4    4    5 1    
     5    5    6 1    
     6    1    6 1    
     7    4    7 1    
     8    7    8 1    
     9    8    9 1    
    10    5    9 1    
    11    7   10 1    
    12    8   11 1    
    13   11   12 1    
    14   12   13 1    
    15   10   13 1    
    16   12   14 1    
    17    8   15 1    
    18   14   15 1    
    19   14   16 2    
    20   12   17 1    
    21    4   18 1    
    22    6   19 1    
    23    6   20 1    
    24   20   21 2    
    25   18   20 1    
    26    1   22 1    
    27    9   23 1    
    28   23   24 2    
    29   23   25 am   
    30   25   26 1    
    31   26   27 1    
    32   27   28 1    
    33   28   29 1    
    34   29   30 1    
    35   30   31 1    
    36   31   32 1    
    37   32   33 1    
    38   33   34 1    
    39   34   35 am   
    40   35   36 2    
    41   35   37 1    
    42   37   38 ar   
    43   38   39 ar   
    44   39   40 ar   
    45   40   41 ar   
    46   41   42 ar   
    47   37   42 ar   
    48   39   43 1    
    49   43   44 2    
    50   43   45 1    
    51   40   46 1    
    52   46   47 2    
    53   47   48 1    
    54   48   49 2    
    55   49   50 1    
    56   50   51 1    
    57   51   52 2    
    58   47   52 1    
    59   52   53 1    
    60   53   54 1    
    61   54   55 ar   
    62   46   55 1    
    63   55   56 ar   
    64   56   57 ar   
    65   57   58 ar   
    66   58   59 ar   
    67   54   59 ar   
    68   50   60 2    
    69   58   61 1    
    70    1   62 1    
    71    2   63 1    
    72    3   64 1    
    73    5   65 1    
    74    7   66 1    
    75    9   67 1    
    76   10   68 1    
    77   10   69 1    
    78   11   70 1    
    79   11   71 1    
    80   13   72 1    
    81   13   73 1    
    82   15   74 1    
    83   15   75 1    
    84   16   76 1    
    85   16   77 1    
    86   17   78 1    
    87   19   79 1    
    88   19   80 1    
    89   19   81 1    
    90   22   82 1    
    91   25   83 1    
    92   26   84 1    
    93   26   85 1    
    94   27   86 1    
    95   27   87 1    
    96   29   88 1    
    97   29   89 1    
    98   30   90 1    
    99   30   91 1    
   100   32   92 1    
   101   32   93 1    
   102   33   94 1    
   103   33   95 1    
   104   34   96 1    
   105   38   97 1    
   106   41   98 1    
   107   42   99 1    
   108   45  100 1    
   109   48  101 1    
   110   49  102 1    
   111   51  103 1    
   112   56  104 1    
   113   57  105 1    
   114   59  106 1    
   115   61  107 1    
@<TRIPOS>SUBSTRUCTURE
     1 ****        2 TEMP              0 ****  ****    0 ROOT 
@<TRIPOS>NORMAL
@<TRIPOS>FF_PBC
FORCE_FIELD_SETUP_FEATURE Force Field Setup information
v1.0  0 0.000000 0.000000 0.000000 0.000000 0.000000 0.000000 NONE 0 0 0 0 1 0 0 0 0 0 0 0 0
