#	Name:			PISM00530
#	Creating user name:	malab
#	Creation time:		Thu Apr 04 21:16:01 2019

#	Modifying user name:	malab
#	Modification time:	Thu Apr 04 21:17:21 2019

@<TRIPOS>MOLECULE
PISM00530
   36    36     1     1     0
SMALL
GAST_HUCK


@<TRIPOS>ATOM
      1 C1         26.5724    8.8307   -0.5166 C.3       1 <1>        -0.0586 
      2 C2         26.7734    8.1564   -1.8994 C.3       1 <1>        -0.0393 
      3 C3         27.7228    6.9829   -1.8291 C.2       1 <1>        -0.0988 
      4 C4         28.0079    6.1658   -2.8551 C.2       1 <1>        -0.0961 
      5 C5         27.4509    6.2742   -4.2608 C.3       1 <1>        -0.0173 
      6 C6         28.5468    6.5664   -5.3268 C.3       1 <1>         0.0441 
      7 C7         29.3618    7.7404   -4.8657 C.2       1 <1>         0.1101 
      8 O8         28.9116    8.8704   -4.7767 O.2       1 <1>        -0.3911 
      9 C9         30.7836    7.4013   -4.5508 C.3       1 <1>         0.0221 
     10 C10        30.9803    6.2593   -5.5714 C.3       1 <1>        -0.0296 
     11 C11        29.6413    5.4700   -5.5391 C.3       1 <1>        -0.0006 
     12 C12        29.4840    4.6157   -6.8335 C.3       1 <1>         0.0542 
     13 C13        28.3419    3.6239   -6.7848 C.2       1 <1>         0.2339 
     14 O14        27.7214    3.4654   -5.7491 O.2       1 <1>        -0.3704 
     15 O15        27.9863    2.8754   -7.8459 O.3       1 <1>        -0.2802 
     16 C16        28.7609    3.0059   -9.0544 C.3       1 <1>         0.0658 
     17 H1         25.8703    9.6750   -0.6058 H         1 <1>         0.0249 
     18 H2         27.5318    9.2103   -0.1322 H         1 <1>         0.0249 
     19 H3         26.1614    8.1080    0.2063 H         1 <1>         0.0249 
     20 H4         27.1734    8.8992   -2.6089 H         1 <1>         0.0385 
     21 H5         25.7889    7.8108   -2.2551 H         1 <1>         0.0385 
     22 H6         28.2120    6.7841   -0.8728 H         1 <1>         0.0450 
     23 H7         28.7003    5.3490   -2.6494 H         1 <1>         0.0452 
     24 H8         26.7197    7.0925   -4.3336 H         1 <1>         0.0416 
     25 H9         26.9114    5.3480   -4.4983 H         1 <1>         0.0416 
     26 H10        28.0886    6.8418   -6.2913 H         1 <1>         0.0554 
     27 H11        30.8536    7.0496   -3.5097 H         1 <1>         0.0494 
     28 H12        31.4713    8.2456   -4.7122 H         1 <1>         0.0494 
     29 H13        31.8519    5.6292   -5.3309 H         1 <1>         0.0296 
     30 H14        31.1338    6.7000   -6.5716 H         1 <1>         0.0296 
     31 H15        29.6806    4.7896   -4.6749 H         1 <1>         0.0357 
     32 H16        30.4106    4.0338   -6.9573 H         1 <1>         0.0523 
     33 H17        29.3744    5.2959   -7.6898 H         1 <1>         0.0523 
     34 H18        29.8226    2.7535   -8.9063 H         1 <1>         0.0577 
     35 H19        28.6649    4.0019   -9.5129 H         1 <1>         0.0577 
     36 H20        28.3409    2.2749   -9.7607 H         1 <1>         0.0577 
@<TRIPOS>BOND
     1    2    1 1    
     2    2    3 1    
     3    3    4 2    
     4    4    5 1    
     5    5    6 1    
     6    6    7 1    
     7    7    8 2    
     8    7    9 1    
     9    9   10 1    
    10   10   11 1    
    11    6   11 1    
    12   11   12 1    
    13   12   13 1    
    14   13   14 2    
    15   13   15 1    
    16   15   16 1    
    17    1   17 1    
    18    1   18 1    
    19    1   19 1    
    20    2   20 1    
    21    2   21 1    
    22    3   22 1    
    23    4   23 1    
    24    5   24 1    
    25    5   25 1    
    26    6   26 1    
    27    9   27 1    
    28    9   28 1    
    29   10   29 1    
    30   10   30 1    
    31   11   31 1    
    32   12   32 1    
    33   12   33 1    
    34   16   34 1    
    35   16   35 1    
    36   16   36 1    
@<TRIPOS>SUBSTRUCTURE
     1 ****        2 TEMP              0 ****  ****    0 ROOT 
@<TRIPOS>NORMAL
@<TRIPOS>FF_PBC
FORCE_FIELD_SETUP_FEATURE Force Field Setup information
v1.0  0 0.000000 0.000000 0.000000 0.000000 0.000000 0.000000 NONE 0 0 0 0 1 0 0 0 0 0 0 0 0
