#	Name:			PISM00012
#	Creating user name:	baoopengkun
#	Creation time:		Thu Nov 15 11:02:16 2018

#	Modifying user name:	baoopengkun
#	Modification time:	Thu Nov 15 11:04:41 2018

@<TRIPOS>MOLECULE
PISM00012
   27    28     1     2     0
SMALL
GAST_HUCK


@<TRIPOS>ATOM
      1 O1          0.1320    5.2379    4.4336 O.3       1 <1>        -0.2167 
      2 C2          0.5853    6.3875    4.9389 C.2       1 <1>         0.2447 
      3 C3         -0.2816    7.5723    5.0431 C.2       1 <1>         0.0067 
      4 C4         -1.5550    7.5403    4.6353 C.2       1 <1>        -0.0313 
      5 C5         -2.0643    6.2340    4.0630 C.ar      1 <1>         0.0230 
      6 C6         -1.1901    5.1425    3.9906 C.ar      1 <1>         0.1349 
      7 O7          1.7418    6.4511    5.3202 O.2       1 <1>        -0.3879 
      8 C8         -2.4486    8.7556    4.7408 C.3       1 <1>        -0.0253 
      9 C9         -3.3793    6.0845    3.6051 C.ar      1 <1>        -0.0591 
     10 C10        -3.8207    4.8652    3.0814 C.ar      1 <1>        -0.0347 
     11 C11        -2.9469    3.7732    3.0087 C.ar      1 <1>         0.0913 
     12 C12        -1.6367    3.9272    3.4666 C.ar      1 <1>         0.0086 
     13 O13        -3.3362    2.5289    2.4933 O.3       1 <1>        -0.3162 
     14 C14        -4.6639    2.2822    2.0005 C.3       1 <1>         0.0691 
     15 C15        -4.7311    0.8147    1.5150 C.3       1 <1>        -0.0369 
     16 H1          0.1593    8.4746    5.4663 H         1 <1>         0.0410 
     17 H2         -1.9308    9.6234    5.1771 H         1 <1>         0.0432 
     18 H3         -3.3140    8.5229    5.3791 H         1 <1>         0.0432 
     19 H4         -2.8018    9.0418    3.7389 H         1 <1>         0.0432 
     20 H5         -4.0789    6.9115    3.6483 H         1 <1>         0.0617 
     21 H6         -4.8461    4.7945    2.7389 H         1 <1>         0.0493 
     22 H7         -0.9533    3.0869    3.4141 H         1 <1>         0.0489 
     23 H8         -4.8906    2.9517    1.1543 H         1 <1>         0.0614 
     24 H9         -5.4055    2.4299    2.8029 H         1 <1>         0.0614 
     25 H10        -5.7355    0.5818    1.1276 H         1 <1>         0.0256 
     26 H11        -4.5040    0.1329    2.3493 H         1 <1>         0.0256 
     27 H12        -3.9933    0.6504    0.7143 H         1 <1>         0.0256 
@<TRIPOS>BOND
     1    2    1 1    
     2    2    3 1    
     3    3    4 2    
     4    4    5 1    
     5    5    6 ar   
     6    1    6 1    
     7    2    7 2    
     8    4    8 1    
     9    5    9 ar   
    10    9   10 ar   
    11   10   11 ar   
    12   11   12 ar   
    13    6   12 ar   
    14   11   13 1    
    15   13   14 1    
    16   14   15 1    
    17    3   16 1    
    18    8   17 1    
    19    8   18 1    
    20    8   19 1    
    21    9   20 1    
    22   10   21 1    
    23   12   22 1    
    24   14   23 1    
    25   14   24 1    
    26   15   25 1    
    27   15   26 1    
    28   15   27 1    
@<TRIPOS>SUBSTRUCTURE
     1 ****        2 TEMP              0 ****  ****    0 ROOT 
@<TRIPOS>NORMAL
@<TRIPOS>FF_PBC
FORCE_FIELD_SETUP_FEATURE Force Field Setup information
v1.0  0 0.000000 0.000000 0.000000 0.000000 0.000000 0.000000 NONE 0 0 0 0 1 0 0 0 0 0 0 0 0
@<TRIPOS>RENDERING_ATTRS
BALL_AND_STICK  
*
