#	Name:			PISM00776
#	Creating user name:	malab
#	Creation time:		Fri Apr 12 09:31:41 2019

#	Modifying user name:	malab
#	Modification time:	Fri Apr 12 09:32:26 2019

@<TRIPOS>MOLECULE
PISM00776
   50    53     1     2     0
SMALL
GAST_HUCK


@<TRIPOS>ATOM
      1 C1          2.4723   14.7402   -8.2399 C.3       1 <1>        -0.0240 
      2 C2          0.9925   14.5044   -7.8677 C.3       1 <1>        -0.0149 
      3 C3          1.0464   13.1162   -7.2981 C.2       1 <1>        -0.0648 
      4 C4          2.3349   12.3903   -7.5962 C.3       1 <1>         0.0391 
      5 C5          3.0016   13.3356   -8.6379 C.3       1 <1>         0.0130 
      6 C6          0.0313   12.5819   -6.6093 C.2       1 <1>        -0.1285 
      7 C7          3.2020   12.2013   -6.3178 C.3       1 <1>         0.1082 
      8 C8          4.5120   13.2175   -8.7298 C.2       1 <1>        -0.0675 
      9 C9          5.0910   11.8192   -8.7462 C.3       1 <1>        -0.0173 
     10 C10         5.4979   11.4113   -7.3061 C.3       1 <1>        -0.0336 
     11 C11         4.2582   11.0750   -6.4361 C.3       1 <1>         0.0335 
     12 C12         5.3317   14.2772   -8.7982 C.2       1 <1>        -0.1286 
     13 O13         2.4296   11.7847   -5.1818 O.3       1 <1>        -0.2688 
     14 C14         3.2035   11.0477   -4.3786 C.2       1 <1>         0.2909 
     15 C15         4.5550   10.7078   -4.9591 C.3       1 <1>         0.1858 
     16 O16         2.8280   10.6523   -3.2874 O.2       1 <1>        -0.3093 
     17 C17         5.6552   11.5576   -4.2674 C.3       1 <1>         0.0912 
     18 O18         5.4311   12.9606   -4.4962 O.3       1 <1>        -0.3332 
     19 C19         6.4474   13.8032   -3.9319 C.3       1 <1>         0.2146 
     20 O20         6.4912   13.6477   -2.4996 O.3       1 <1>        -0.2355 
     21 C21         6.0955   14.8162   -2.0099 C.2       1 <1>         0.2491 
     22 O22         6.0039   15.0139   -0.8105 O.2       1 <1>        -0.3691 
     23 C23         5.7902   15.8419   -3.0016 C.2       1 <1>         0.0288 
     24 C24         6.0118   15.2283   -4.1622 C.2       1 <1>        -0.0067 
     25 C25         5.3303   17.2556   -2.7724 C.3       1 <1>        -0.0323 
     26 H1          3.0052   15.1077   -7.3476 H         1 <1>         0.0323 
     27 H2          2.5700   15.4863   -9.0459 H         1 <1>         0.0323 
     28 H3          0.3631   14.4847   -8.7719 H         1 <1>         0.0462 
     29 H4          0.6004   15.2537   -7.1609 H         1 <1>         0.0462 
     30 H5          2.0814   11.4110   -8.0332 H         1 <1>         0.0553 
     31 H6          2.5906   13.0985   -9.6346 H         1 <1>         0.0527 
     32 H7          0.0861   11.5663   -6.2191 H         1 <1>         0.0075 
     33 H8         -0.8776   13.1546   -6.4278 H         1 <1>         0.0075 
     34 H9          3.6684   13.1608   -6.0518 H         1 <1>         0.0683 
     35 O35         4.8722    9.3029   -4.8689 O.3       1 <1>        -0.3812 
     36 H10         5.9936   11.8102   -9.3800 H         1 <1>         0.0460 
     37 H11         4.3880   11.0946   -9.1862 H         1 <1>         0.0460 
     38 H12         6.1392   10.5145   -7.3422 H         1 <1>         0.0295 
     39 H13         6.0856   12.2325   -6.8681 H         1 <1>         0.0295 
     40 H14         3.7590   10.1935   -6.8749 H         1 <1>         0.0348 
     41 H15         4.9892   15.3094   -8.8035 H         1 <1>         0.0075 
     42 H16         6.4118   14.1434   -8.8542 H         1 <1>         0.0075 
     43 H17         6.6326   11.2419   -4.6654 H         1 <1>         0.0578 
     44 H18         5.6360   11.3404   -3.1870 H         1 <1>         0.0578 
     45 H19         7.4407   13.6259   -4.3768 H         1 <1>         0.1143 
     46 H20         5.8889   15.6825   -5.1447 H         1 <1>         0.0701 
     47 H21         4.4115   17.4465   -3.3469 H         1 <1>         0.0347 
     48 H22         6.1129   17.9562   -3.0993 H         1 <1>         0.0347 
     49 H23         5.1241   17.4223   -1.7045 H         1 <1>         0.0347 
     50 H24         4.8861    8.9945   -3.9679 H         1 <1>         0.2079 
@<TRIPOS>BOND
     1    1    2 1    
     2    2    3 1    
     3    4    3 1    
     4    5    4 1    
     5    5    1 1    
     6    3    6 2    
     7    4    7 1    
     8    8    5 1    
     9    9    8 1    
    10   10   11 1    
    11    9   10 1    
    12    7   11 1    
    13    8   12 2    
    14    7   13 1    
    15   13   14 1    
    16   14   15 1    
    17   11   15 1    
    18   14   16 2    
    19   15   17 1    
    20   17   18 1    
    21   18   19 1    
    22   19   20 1    
    23   20   21 1    
    24   21   22 2    
    25   21   23 1    
    26   23   24 2    
    27   19   24 1    
    28   23   25 1    
    29    1   26 1    
    30    1   27 1    
    31    2   28 1    
    32    2   29 1    
    33    4   30 1    
    34    5   31 1    
    35    6   32 1    
    36    6   33 1    
    37   15   35 1    
    38    7   34 1    
    39    9   36 1    
    40    9   37 1    
    41   10   38 1    
    42   10   39 1    
    43   11   40 1    
    44   12   41 1    
    45   12   42 1    
    46   17   43 1    
    47   17   44 1    
    48   19   45 1    
    49   24   46 1    
    50   25   47 1    
    51   25   48 1    
    52   25   49 1    
    53   35   50 1    
@<TRIPOS>SUBSTRUCTURE
     1 ****        2 TEMP              0 ****  ****    0 ROOT 
@<TRIPOS>NORMAL
@<TRIPOS>FF_PBC
FORCE_FIELD_SETUP_FEATURE Force Field Setup information
v1.0  0 0.000000 0.000000 0.000000 0.000000 0.000000 0.000000 NONE 0 0 0 0 1 0 0 0 0 0 0 0 0
@<TRIPOS>RENDERING_ATTRS
LINES           
1,2,3,4,5,6,7,8,9,10,11,12,13,14,15,16,17,18,35
