#	Name:			PISM00085
#	Creating user name:	baoopengkun
#	Creation time:		Thu Dec 27 16:28:12 2018

#	Modifying user name:	baoopengkun
#	Modification time:	Thu Dec 27 16:30:02 2018

@<TRIPOS>MOLECULE
PISM00085
   38    40     1     1     0
SMALL
GAST_HUCK


@<TRIPOS>ATOM
      1 Br1         2.9057   -0.5588  -17.5539 Br        1 <1>        -0.0517 
      2 C2          3.1879    1.1998  -17.0435 C.ar      1 <1>         0.0064 
      3 C3          4.4902    1.6885  -16.9090 C.ar      1 <1>        -0.0591 
      4 C4          4.6998    3.0162  -16.5262 C.ar      1 <1>        -0.0657 
      5 C5          3.6085    3.8539  -16.2777 C.ar      1 <1>        -0.0565 
      6 C6          2.3020    3.3680  -16.4054 C.ar      1 <1>        -0.0274 
      7 C7          2.0985    2.0389  -16.7929 C.ar      1 <1>        -0.0497 
      8 C8          1.0952    4.2720  -16.1284 C.3       1 <1>         0.0483 
      9 S9          0.4445    4.7865  -17.7492 S.3       1 <1>        -0.0406 
     10 C10        -0.9159    5.7604  -17.1340 C.2       1 <1>         0.1651 
     11 N11        -1.1752    5.9307  -15.9016 N.2       1 <1>        -0.2719 
     12 N12        -2.3212    6.7558  -15.7326 N.2       1 <1>        -0.2660 
     13 C13        -2.8020    7.1179  -16.8532 C.2       1 <1>         0.2151 
     14 S14        -1.9733    6.5400  -18.3155 S.3       1 <1>         0.0772 
     15 N15        -3.8567    7.8803  -16.9802 N.pl3     1 <1>        -0.2002 
     16 C16        -4.5250    8.3466  -15.9560 C.2       1 <1>         0.2220 
     17 O17        -4.2403    8.1267  -14.7908 O.2       1 <1>        -0.3754 
     18 C18        -5.7308    9.2158  -16.2166 C.3       1 <1>         0.1057 
     19 S19        -6.9728    8.2152  -17.0956 S.3       1 <1>        -0.0589 
     20 C20        -8.2257    9.4583  -17.2375 C.ar      1 <1>         0.0893 
     21 N21        -7.8690   10.7194  -17.5573 N.ar      1 <1>        -0.2866 
     22 C22        -8.7867   11.7004  -17.6827 C.ar      1 <1>         0.0037 
     23 C23       -10.1435   11.4281  -17.4849 C.ar      1 <1>        -0.0410 
     24 C24       -10.5389   10.1288  -17.1552 C.ar      1 <1>        -0.0480 
     25 C25        -9.5684    9.1313  -17.0305 C.ar      1 <1>        -0.0215 
     26 H1          5.3373    1.0380  -17.1018 H         1 <1>         0.0585 
     27 H2          5.7115    3.3968  -16.4221 H         1 <1>         0.0606 
     28 H3          3.7838    4.8846  -15.9863 H         1 <1>         0.0581 
     29 H4          1.0902    1.6534  -16.9022 H         1 <1>         0.0584 
     30 H5          1.3796    5.1601  -15.5434 H         1 <1>         0.0572 
     31 H6          0.3241    3.7159  -15.5733 H         1 <1>         0.0572 
     32 H7         -4.1711    8.1196  -17.9307 H         1 <1>         0.2230 
     33 H8         -5.4377   10.0846  -16.8243 H         1 <1>         0.0655 
     34 H9         -6.1660    9.5748  -15.2712 H         1 <1>         0.0655 
     35 H10        -8.4618   12.7034  -17.9390 H         1 <1>         0.0803 
     36 H11       -10.8817   12.2175  -17.5864 H         1 <1>         0.0652 
     37 H12       -11.5879    9.8972  -16.9979 H         1 <1>         0.0719 
     38 H13        -9.8519    8.1154  -16.7761 H         1 <1>         0.0660 
@<TRIPOS>BOND
     1    2    1 1    
     2    2    3 ar   
     3    3    4 ar   
     4    4    5 ar   
     5    5    6 ar   
     6    6    7 ar   
     7    2    7 ar   
     8    6    8 1    
     9    8    9 1    
    10    9   10 1    
    11   10   11 2    
    12   11   12 1    
    13   12   13 2    
    14   13   14 1    
    15   10   14 1    
    16   13   15 1    
    17   15   16 1    
    18   16   17 2    
    19   16   18 1    
    20   18   19 1    
    21   19   20 1    
    22   20   21 ar   
    23   21   22 ar   
    24   22   23 ar   
    25   23   24 ar   
    26   24   25 ar   
    27   20   25 ar   
    28    3   26 1    
    29    4   27 1    
    30    5   28 1    
    31    7   29 1    
    32    8   30 1    
    33    8   31 1    
    34   15   32 1    
    35   18   33 1    
    36   18   34 1    
    37   22   35 1    
    38   23   36 1    
    39   24   37 1    
    40   25   38 1    
@<TRIPOS>SUBSTRUCTURE
     1 ****        2 TEMP              0 ****  ****    0 ROOT 
@<TRIPOS>NORMAL
@<TRIPOS>FF_PBC
FORCE_FIELD_SETUP_FEATURE Force Field Setup information
v1.0  0 0.000000 0.000000 0.000000 0.000000 0.000000 0.000000 NONE 0 0 0 0 1 0 0 0 0 0 0 0 0
