#	Name:			PISM00594
#	Creating user name:	baoopengkun
#	Creation time:		Mon Dec 10 12:11:16 2018

#	Modifying user name:	baoopengkun
#	Modification time:	Mon Dec 10 12:11:35 2018

@<TRIPOS>MOLECULE
PISM00594
   36    38     1     2     0
SMALL
GAST_HUCK


@<TRIPOS>ATOM
      1 C1         -2.4522   10.4266   -1.0036 C.ar      1 <1>        -0.0348 
      2 C2         -1.8848    9.8361    0.1289 C.ar      1 <1>        -0.0180 
      3 C3         -2.2445   10.2827    1.4034 C.ar      1 <1>         0.0714 
      4 C4         -3.1735   11.3174    1.5440 C.ar      1 <1>        -0.0180 
      5 C5         -3.7443   11.9046    0.4111 C.ar      1 <1>        -0.0348 
      6 C6         -3.3818   11.4625   -0.8651 C.ar      1 <1>         0.0068 
      7 C7         -4.0007   12.1005   -2.1153 C.3       1 <1>         0.1920 
      8 C8         -5.2529   11.3032   -2.5398 C.3       1 <1>         0.1073 
      9 N9         -4.9532    9.8784   -2.5806 N.pl3     1 <1>        -0.1814 
     10 N10        -4.4647    9.1805   -3.6437 N.2       1 <1>        -0.1908 
     11 C11        -4.3092    7.9327   -3.3987 C.2       1 <1>         0.0618 
     12 N12        -4.7642    7.8666   -2.0373 N.2       1 <1>        -0.2870 
     13 C13        -5.1194    9.0016   -1.6375 C.2       1 <1>         0.1270 
     14 O14        -4.3000   13.4896   -1.9331 O.3       1 <1>        -0.3815 
     15 C15        -3.0516   14.1940   -1.9646 C.3       1 <1>         0.0647 
     16 C16        -2.1504   13.2693   -2.8249 C.3       1 <1>         0.0726 
     17 O17        -3.0491   12.2121   -3.1791 O.3       1 <1>        -0.3785 
     18 Cl18       -1.5320    9.5457    2.8240 Cl        1 <1>        -0.0420 
     19 H1         -2.1739   10.0772   -1.9938 H         1 <1>         0.0849 
     20 H2         -1.1658    9.0305    0.0202 H         1 <1>         0.0703 
     21 H3         -3.4507   11.6634    2.5346 H         1 <1>         0.0703 
     22 H4         -4.4706   12.7038    0.5230 H         1 <1>         0.0849 
     23 H5         -5.5708   11.6447   -3.5359 H         1 <1>         0.0595 
     24 H6         -6.0641   11.5042   -1.8238 H         1 <1>         0.0595 
     25 H7         -3.9358    7.1416   -4.0472 H         1 <1>         0.0863 
     26 H8         -5.5057    9.2012   -0.6387 H         1 <1>         0.1361 
     27 H11        -2.6546   14.2986   -0.9419 H         1 <1>         0.0575 
     28 C28        -1.5937   13.9439   -4.1036 C.3       1 <1>        -0.0283 
     29 H9         -3.2070   15.1948   -2.3950 H         1 <1>         0.0575 
     30 H10        -1.3269   12.8585   -2.2155 H         1 <1>         0.0608 
     31 H12        -0.3702   13.4390   -5.8478 H         1 <1>         0.0231 
     32 H13        -1.3658   12.0835   -5.2389 H         1 <1>         0.0231 
     33 H14         0.1067   12.5818   -4.3522 H         1 <1>         0.0231 
     34 C34        -0.7506   12.9464   -4.9391 C.3       1 <1>        -0.0629 
     35 H15        -0.9696   14.8067   -3.8183 H         1 <1>         0.0288 
     36 H16        -2.4377   14.3069   -4.7128 H         1 <1>         0.0288 
@<TRIPOS>BOND
     1    1    2 ar   
     2    2    3 ar   
     3    4    3 ar   
     4    5    4 ar   
     5    6    5 ar   
     6    6    1 ar   
     7    7    6 1    
     8    7    8 1    
     9    8    9 1    
    10    9   10 1    
    11   10   11 2    
    12   12   11 1    
    13   13   12 2    
    14    9   13 1    
    15    7   14 1    
    16   15   14 1    
    17   16   15 1    
    18   16   17 1    
    19   17    7 1    
    20    3   18 1    
    21    1   19 1    
    22    2   20 1    
    23    4   21 1    
    24    5   22 1    
    25    8   23 1    
    26    8   24 1    
    27   11   25 1    
    28   13   26 1    
    29   15   27 1    
    30   28   16 1    
    31   15   29 1    
    32   16   30 1    
    33   34   31 1    
    34   34   32 1    
    35   34   33 1    
    36   28   34 1    
    37   28   35 1    
    38   28   36 1    
@<TRIPOS>SUBSTRUCTURE
     1 ****        2 TEMP              0 ****  ****    0 ROOT 
@<TRIPOS>NORMAL
@<TRIPOS>FF_PBC
FORCE_FIELD_SETUP_FEATURE Force Field Setup information
v1.0  0 0.000000 0.000000 0.000000 0.000000 0.000000 0.000000 NONE 0 0 0 0 1 0 0 0 0 0 0 0 0
@<TRIPOS>RENDERING_ATTRS
ANTIALIASED_LINES 
*
