#	Name:			PISM00755
#	Creating user name:	baoopengkun
#	Creation time:		Wed Jan 02 12:24:39 2019

#	Modifying user name:	baoopengkun
#	Modification time:	Wed Jan 02 12:26:07 2019

@<TRIPOS>MOLECULE
PISM00755
   44    46     1     1     0
SMALL
GAST_HUCK


@<TRIPOS>ATOM
      1 C1         -9.2736   -3.7412    0.9013 C.ar      1 <1>        -0.0312 
      2 C2         -9.3857   -2.6537    0.0249 C.ar      1 <1>        -0.0314 
      3 C3         -8.3272   -1.7468   -0.1548 C.ar      1 <1>         0.0714 
      4 C4         -7.1244   -1.9114    0.5480 C.ar      1 <1>        -0.0156 
      5 C5         -7.0262   -2.9990    1.4151 C.ar      1 <1>         0.0824 
      6 C6         -8.0688   -3.8849    1.5873 C.ar      1 <1>         0.0810 
      7 C7         -7.5655   -4.8869    2.5921 C.2       1 <1>         0.2552 
      8 O8         -8.2790   -5.7971    2.9760 O.2       1 <1>        -0.3549 
      9 N9         -6.3349   -4.5815    2.9406 N.pl3     1 <1>        -0.1462 
     10 C10        -5.9244   -3.5001    2.3129 C.2       1 <1>         0.2534 
     11 O11        -4.8629   -2.9063    2.3362 O.2       1 <1>        -0.3566 
     12 C12        -5.6486   -5.3004    3.8134 C.2       1 <1>         0.1755 
     13 C13        -6.2103   -6.5797    4.3094 C.2       1 <1>         0.2659 
     14 O14        -6.3763   -6.7208    5.5120 O.2       1 <1>        -0.3725 
     15 O15        -6.4867   -7.5637    3.4396 O.3       1 <1>        -0.2845 
     16 C16        -7.0879   -8.7256    4.0427 C.3       1 <1>         0.0638 
     17 C17        -4.4432   -5.0575    4.3664 C.2       1 <1>         0.0965 
     18 O18        -3.7534   -3.9388    4.1161 O.3       1 <1>        -0.2797 
     19 C19        -2.4592   -3.8627    4.7430 C.3       1 <1>         0.2354 
     20 C20        -1.5098   -4.8652    4.1255 C.2       1 <1>        -0.0015 
     21 C21        -0.5198   -4.2429    3.4888 C.2       1 <1>         0.0292 
     22 C22        -0.8130   -2.8308    3.6999 C.2       1 <1>         0.2495 
     23 O23        -1.8963   -2.5748    4.4220 O.3       1 <1>        -0.2310 
     24 O24        -0.1076   -1.9421    3.2542 O.2       1 <1>        -0.3691 
     25 C25         0.6248   -4.8490    2.7237 C.3       1 <1>        -0.0323 
     26 H1        -10.0853   -4.4469    1.0465 H         1 <1>         0.0692 
     27 H2        -10.3132   -2.5167   -0.5225 H         1 <1>         0.0714 
     28 C28        -8.4833   -0.5849   -1.1130 C.2       1 <1>         0.2667 
     29 H4         -6.2914   -1.2258    0.4310 H         1 <1>         0.0737 
     30 H5         -7.2804   -9.4576    3.2448 H         1 <1>         0.0574 
     31 H6         -8.0482   -8.4703    4.5193 H         1 <1>         0.0574 
     32 H7         -6.4183   -9.1875    4.7858 H         1 <1>         0.0574 
     33 H8         -4.0259   -5.7978    5.0564 H         1 <1>         0.0970 
     34 H9         -2.5116   -3.9537    5.8412 H         1 <1>         0.1204 
     35 H10        -1.6150   -5.9476    4.1824 H         1 <1>         0.0706 
     36 H11         0.2809   -5.7265    2.1558 H         1 <1>         0.0347 
     37 H12         1.4119   -5.1590    3.4267 H         1 <1>         0.0347 
     38 H13         1.0417   -4.1119    2.0210 H         1 <1>         0.0347 
     39 O39        -7.5550    0.1949   -1.2608 O.2       1 <1>        -0.3551 
     40 O40        -9.6369   -0.4333   -1.7820 O.3       1 <1>        -0.2803 
     41 C41        -9.6583    0.7053   -2.6663 C.3       1 <1>         0.0647 
     42 H3        -10.6418    0.7328   -3.1579 H         1 <1>         0.0575 
     43 H14        -8.8831    0.6216   -3.4449 H         1 <1>         0.0575 
     44 H15        -9.5211    1.6470   -2.1108 H         1 <1>         0.0575 
@<TRIPOS>BOND
     1    2    1 ar   
     2    2    3 ar   
     3    3    4 ar   
     4    4    5 ar   
     5    5    6 ar   
     6    1    6 ar   
     7    6    7 1    
     8    7    8 2    
     9    7    9 1    
    10    9   10 1    
    11    5   10 1    
    12   10   11 2    
    13    9   12 1    
    14   12   13 1    
    15   13   14 2    
    16   13   15 1    
    17   15   16 1    
    18   12   17 2    
    19   17   18 1    
    20   18   19 1    
    21   19   20 1    
    22   20   21 2    
    23   21   22 1    
    24   22   23 1    
    25   19   23 1    
    26   22   24 2    
    27   21   25 1    
    28    1   26 1    
    29    2   27 1    
    30    3   28 1    
    31    4   29 1    
    32   16   30 1    
    33   16   31 1    
    34   16   32 1    
    35   17   33 1    
    36   19   34 1    
    37   20   35 1    
    38   25   36 1    
    39   25   37 1    
    40   25   38 1    
    41   28   39 2    
    42   28   40 1    
    43   40   41 1    
    44   41   42 1    
    45   41   43 1    
    46   41   44 1    
@<TRIPOS>SUBSTRUCTURE
     1 ****        2 TEMP              0 ****  ****    0 ROOT 
@<TRIPOS>NORMAL
@<TRIPOS>FF_PBC
FORCE_FIELD_SETUP_FEATURE Force Field Setup information
v1.0  0 0.000000 0.000000 0.000000 0.000000 0.000000 0.000000 NONE 0 0 0 0 1 0 0 0 0 0 0 0 0
