#	Name:			PISM00973
#	Creating user name:	baoopengkun
#	Creation time:		Thu Dec 13 11:34:04 2018

#	Modifying user name:	baoopengkun
#	Modification time:	Thu Dec 13 11:35:27 2018

@<TRIPOS>MOLECULE
PISM00973
   34    35     1     1     0
SMALL
GAST_HUCK


@<TRIPOS>ATOM
      1 C1          0.3881   14.3084   -7.6361 C.ar      1 <1>        -0.0429 
      2 C2          1.3841   14.0042   -6.7005 C.ar      1 <1>        -0.0603 
      3 C3          2.5726   14.7397   -6.6702 C.ar      1 <1>        -0.0686 
      4 C4          2.7712   15.7862   -7.5749 C.ar      1 <1>        -0.0687 
      5 C5          1.7803   16.0938   -8.5111 C.ar      1 <1>        -0.0686 
      6 C6          0.5939   15.3551   -8.5419 C.ar      1 <1>        -0.0603 
      7 C7         -0.9223   13.5092   -7.6759 C.3       1 <1>        -0.0163 
      8 C8         -2.0776   14.3166   -7.0263 C.3       1 <1>        -0.0098 
      9 C9         -1.7648   14.6284   -5.5382 C.3       1 <1>         0.1100 
     10 O10        -1.8110   13.4150   -4.7729 O.3       1 <1>        -0.2703 
     11 C11        -2.7836   13.8599   -4.0089 C.2       1 <1>         0.2401 
     12 C12        -2.8937   15.2197   -4.6182 C.3       1 <1>         0.0907 
     13 C13        -4.2996   15.5443   -5.1906 C.3       1 <1>        -0.0294 
     14 C14        -4.3268   16.9428   -5.8647 C.3       1 <1>        -0.0534 
     15 C15        -5.7344   17.2663   -6.4299 C.3       1 <1>        -0.0651 
     16 O16        -3.3866   13.3224   -3.0962 O.2       1 <1>        -0.3700 
     17 H1          1.2401   13.1965   -5.9897 H         1 <1>         0.0557 
     18 H2          3.3422   14.4980   -5.9434 H         1 <1>         0.0599 
     19 H3          3.6935   16.3589   -7.5506 H         1 <1>         0.0559 
     20 H4          1.9325   16.9065   -9.2148 H         1 <1>         0.0599 
     21 H5         -0.1689   15.5992   -9.2744 H         1 <1>         0.0557 
     22 H6         -0.8043   12.5473   -7.1515 H         1 <1>         0.0427 
     23 H7         -1.1662   13.2844   -8.7272 H         1 <1>         0.0427 
     24 H8         -2.9919   13.7098   -7.1112 H         1 <1>         0.0317 
     25 H9         -2.2191   15.2544   -7.5831 H         1 <1>         0.0317 
     26 H10        -0.8121   15.1668   -5.3982 H         1 <1>         0.0680 
     27 H11        -2.5296   15.9695   -3.8975 H         1 <1>         0.0583 
     28 H12        -5.0033   15.5543   -4.3420 H         1 <1>         0.0294 
     29 H13        -4.6448   14.7688   -5.8888 H         1 <1>         0.0294 
     30 H14        -3.5950   16.9865   -6.6853 H         1 <1>         0.0264 
     31 H15        -4.0518   17.7126   -5.1240 H         1 <1>         0.0264 
     32 H16        -5.7366   18.2652   -6.8946 H         1 <1>         0.0230 
     33 H17        -6.4852   17.2538   -5.6244 H         1 <1>         0.0230 
     34 H18        -6.0215   16.5255   -7.1924 H         1 <1>         0.0230 
@<TRIPOS>BOND
     1    2    1 ar   
     2    2    3 ar   
     3    3    4 ar   
     4    4    5 ar   
     5    5    6 ar   
     6    1    6 ar   
     7    1    7 1    
     8    7    8 1    
     9    8    9 1    
    10    9   10 1    
    11   10   11 1    
    12   11   12 1    
    13    9   12 1    
    14   12   13 1    
    15   13   14 1    
    16   14   15 1    
    17   11   16 2    
    18    2   17 1    
    19    3   18 1    
    20    4   19 1    
    21    5   20 1    
    22    6   21 1    
    23    7   22 1    
    24    7   23 1    
    25    8   24 1    
    26    8   25 1    
    27    9   26 1    
    28   12   27 1    
    29   13   28 1    
    30   13   29 1    
    31   14   30 1    
    32   14   31 1    
    33   15   32 1    
    34   15   33 1    
    35   15   34 1    
@<TRIPOS>SUBSTRUCTURE
     1 ****        2 TEMP              0 ****  ****    0 ROOT 
@<TRIPOS>NORMAL
@<TRIPOS>FF_PBC
FORCE_FIELD_SETUP_FEATURE Force Field Setup information
v1.0  0 0.000000 0.000000 0.000000 0.000000 0.000000 0.000000 NONE 0 0 0 0 1 0 0 0 0 0 0 0 0
