#	Name:			PISM00780
#	Creating user name:	baoopengkun
#	Creation time:		Fri Nov 30 22:20:33 2018

#	Modifying user name:	baoopengkun
#	Modification time:	Fri Nov 30 22:21:06 2018

@<TRIPOS>MOLECULE
PISM00780
   26    27     1     2     0
SMALL
GAST_HUCK


@<TRIPOS>ATOM
      1 O1        -25.9670   18.4449  -17.1019 O.3       1 <1>        -0.2001 
      2 C2        -27.2500   18.3978  -16.7215 C.2       1 <1>         0.1360 
      3 C3        -28.1024   17.4971  -17.2273 C.2       1 <1>         0.0087 
      4 C4        -27.6664   16.5167  -18.2314 C.2       1 <1>         0.0834 
      5 C5        -26.3829   16.5614  -18.6152 C.2       1 <1>         0.0091 
      6 C6        -25.5038   17.5781  -18.0099 C.2       1 <1>         0.2318 
      7 C7        -27.6178   19.4366  -15.6939 C.3       1 <1>         0.0203 
      8 O8        -24.3297   17.6381  -18.3335 O.2       1 <1>        -0.4094 
      9 O9        -28.5660   15.6325  -18.7086 O.3       1 <1>        -0.2683 
     10 C10       -28.1331   14.7151  -19.7280 C.3       1 <1>         0.2387 
     11 C11       -29.3433   13.9040  -20.1236 C.2       1 <1>        -0.0013 
     12 C12       -29.6662   14.1247  -21.3965 C.2       1 <1>         0.0292 
     13 C13       -28.6568   15.0766  -21.8410 C.2       1 <1>         0.2495 
     14 O14       -27.7595   15.4254  -20.9282 O.3       1 <1>        -0.2307 
     15 O15       -28.6319   15.5202  -22.9761 O.2       1 <1>        -0.3691 
     16 C16       -30.7939   13.5405  -22.2024 C.3       1 <1>        -0.0323 
     17 H1        -29.1432   17.4708  -16.9061 H         1 <1>         0.0341 
     18 H2        -25.9051   15.9095  -19.3436 H         1 <1>         0.0187 
     19 H3        -28.6751   19.3715  -15.3963 H         1 <1>         0.0520 
     20 H4        -27.4297   20.4378  -16.1097 H         1 <1>         0.0520 
     21 H5        -26.9909   19.2993  -14.8003 H         1 <1>         0.0520 
     22 H6        -27.3411   14.0285  -19.3844 H         1 <1>         0.1207 
     23 H7        -29.8778   13.2357  -19.4496 H         1 <1>         0.0706 
     24 H8        -31.3618   12.8042  -21.6141 H         1 <1>         0.0347 
     25 H9        -30.3856   13.0466  -23.0967 H         1 <1>         0.0347 
     26 H10       -31.4715   14.3479  -22.5177 H         1 <1>         0.0347 
@<TRIPOS>BOND
     1    2    1 1    
     2    2    3 2    
     3    3    4 1    
     4    4    5 2    
     5    5    6 1    
     6    1    6 1    
     7    2    7 1    
     8    6    8 2    
     9    4    9 1    
    10    9   10 1    
    11   10   11 1    
    12   11   12 2    
    13   12   13 1    
    14   13   14 1    
    15   10   14 1    
    16   13   15 2    
    17   12   16 1    
    18    3   17 1    
    19    5   18 1    
    20    7   19 1    
    21    7   20 1    
    22    7   21 1    
    23   10   22 1    
    24   11   23 1    
    25   16   24 1    
    26   16   25 1    
    27   16   26 1    
@<TRIPOS>SUBSTRUCTURE
     1 ****        2 TEMP              0 ****  ****    0 ROOT 
@<TRIPOS>NORMAL
@<TRIPOS>FF_PBC
FORCE_FIELD_SETUP_FEATURE Force Field Setup information
v1.0  0 0.000000 0.000000 0.000000 0.000000 0.000000 0.000000 NONE 0 0 0 0 1 0 0 0 0 0 0 0 0
@<TRIPOS>RENDERING_ATTRS
ANTIALIASED_LINES 
*
