#	Name:			PISM00956.1
#	Creating user name:	baoopengkun
#	Creation time:		Thu Dec 13 10:35:31 2018

#	Modifying user name:	baoopengkun
#	Modification time:	Thu Dec 13 10:39:15 2018

@<TRIPOS>MOLECULE
PISM00956.1
   41    43     1     1     0
SMALL
GAST_HUCK


@<TRIPOS>ATOM
      1 C1         -9.7289    8.4096   -5.6210 C.ar      1 <1>        -0.0323 
      2 C2        -10.2443    9.6954   -5.7994 C.ar      1 <1>        -0.0340 
      3 C3        -11.6260    9.8764   -5.8943 C.ar      1 <1>        -0.0323 
      4 C4        -12.4855    8.7782   -5.7950 C.ar      1 <1>        -0.0370 
      5 C5        -11.9829    7.4895   -5.5688 C.ar      1 <1>        -0.0190 
      6 C6        -10.5932    7.3152   -5.5217 C.ar      1 <1>        -0.0370 
      7 C7        -12.9369    6.2862   -5.3890 C.3       1 <1>         0.0876 
      8 O8        -14.3099    6.7138   -5.3045 O.3       1 <1>        -0.4201 
      9 C9        -12.8501    5.3720   -6.6421 C.3       1 <1>        -0.0350 
     10 C10       -12.5897    5.4867   -4.0962 C.3       1 <1>         0.0827 
     11 N11       -13.6307    4.5229   -3.7695 N.pl3     1 <1>        -0.1836 
     12 N12       -14.7258    4.7483   -2.9904 N.2       1 <1>        -0.1909 
     13 C13       -15.4571    3.7080   -2.8351 C.2       1 <1>         0.0618 
     14 N14       -14.7146    2.7409   -3.5955 N.2       1 <1>        -0.2870 
     15 C15       -13.6895    3.2667   -4.0925 C.2       1 <1>         0.1269 
     16 C16       -13.1673    6.1382   -7.9531 C.3       1 <1>        -0.0237 
     17 C17       -13.1554    5.1503   -9.1282 C.ar      1 <1>        -0.0434 
     18 C18       -11.9728    4.9064   -9.8360 C.ar      1 <1>        -0.0597 
     19 C19       -11.9652    4.0107  -10.9093 C.ar      1 <1>        -0.0546 
     20 C20       -13.1400    3.3502  -11.2782 C.ar      1 <1>         0.0330 
     21 C21       -14.3217    3.5861  -10.5711 C.ar      1 <1>        -0.0546 
     22 C22       -14.3281    4.4818   -9.4978 C.ar      1 <1>        -0.0597 
     23 Cl23      -13.1312    2.2285  -12.6238 Cl        1 <1>        -0.0771 
     24 H1         -8.6547    8.2611   -5.5607 H         1 <1>         0.0698 
     25 H2         -9.5754   10.5484   -5.8660 H         1 <1>         0.0856 
     26 H3        -12.0323   10.8721   -6.0466 H         1 <1>         0.0698 
     27 H4        -13.5514    8.9464   -5.9032 H         1 <1>         0.0851 
     28 H5        -10.1622    6.3268   -5.4128 H         1 <1>         0.0851 
     29 H6        -14.5097    7.1827   -4.5007 H         1 <1>         0.1963 
     30 H7        -13.5827    4.5566   -6.5352 H         1 <1>         0.0220 
     31 H8        -11.8473    4.9237   -6.7233 H         1 <1>         0.0220 
     32 H9        -12.5232    6.1889   -3.2510 H         1 <1>         0.0572 
     33 H10       -11.6279    4.9601   -4.1762 H         1 <1>         0.0572 
     34 H11       -16.3851    3.5903   -2.2777 H         1 <1>         0.0863 
     35 H12       -12.9656    2.7268   -4.7017 H         1 <1>         0.1361 
     36 H13       -12.4239    6.9307   -8.1324 H         1 <1>         0.0420 
     37 H14       -14.1557    6.6194   -7.8818 H         1 <1>         0.0420 
     38 H15       -11.0540    5.4106   -9.5537 H         1 <1>         0.0557 
     39 H16       -11.0475    3.8258  -11.4581 H         1 <1>         0.0606 
     40 H17       -15.2336    3.0721  -10.8567 H         1 <1>         0.0606 
     41 H18       -15.2496    4.6542   -8.9506 H         1 <1>         0.0557 
@<TRIPOS>BOND
     1    2    1 ar   
     2    2    3 ar   
     3    3    4 ar   
     4    4    5 ar   
     5    5    6 ar   
     6    1    6 ar   
     7    5    7 1    
     8    7    8 1    
     9    7    9 1    
    10    7   10 1    
    11   10   11 1    
    12   11   12 1    
    13   12   13 2    
    14   13   14 1    
    15   14   15 2    
    16   11   15 1    
    17    9   16 1    
    18   16   17 1    
    19   17   18 ar   
    20   18   19 ar   
    21   19   20 ar   
    22   20   21 ar   
    23   21   22 ar   
    24   17   22 ar   
    25   20   23 1    
    26    1   24 1    
    27    2   25 1    
    28    3   26 1    
    29    4   27 1    
    30    6   28 1    
    31    8   29 1    
    32    9   30 1    
    33    9   31 1    
    34   10   32 1    
    35   10   33 1    
    36   13   34 1    
    37   15   35 1    
    38   16   36 1    
    39   16   37 1    
    40   18   38 1    
    41   19   39 1    
    42   21   40 1    
    43   22   41 1    
@<TRIPOS>SUBSTRUCTURE
     1 ****        2 TEMP              0 ****  ****    0 ROOT 
@<TRIPOS>NORMAL
@<TRIPOS>FF_PBC
FORCE_FIELD_SETUP_FEATURE Force Field Setup information
v1.0  0 0.000000 0.000000 0.000000 0.000000 0.000000 0.000000 NONE 0 0 0 0 1 0 0 0 0 0 0 0 0
