#	Name:			PISM00205
#	Creating user name:	14062
#	Creation time:		Mon Apr 01 20:10:24 2019

#	Modifying user name:	14062
#	Modification time:	Mon Apr 01 20:22:13 2019

@<TRIPOS>MOLECULE
PISM00205
   51    52     1     2     0
SMALL
GAST_HUCK


@<TRIPOS>ATOM
      1 N1          0.2297    4.7238   -1.3821 N.pl3     1 <1>        -0.2884 
      2 C2         -0.7834    3.8418   -1.2763 C.ar      1 <1>         0.0606 
      3 C3         -1.9861    4.5058   -1.4182 C.ar      1 <1>        -0.0191 
      4 C4         -3.2125    3.8456   -1.3621 C.ar      1 <1>        -0.0746 
      5 C5         -3.1730    2.4621   -1.1425 C.ar      1 <1>        -0.0792 
      6 C6         -1.9523    1.7840   -0.9916 C.ar      1 <1>        -0.0767 
      7 C7         -1.5496    5.9346   -1.6166 C.2       1 <1>        -0.0231 
      8 C8         -0.2057    5.9424   -1.5811 C.2       1 <1>         0.0195 
      9 C9         -0.7293    2.4654   -1.0586 C.ar      1 <1>        -0.0442 
     10 C10        -2.4831    7.1016   -1.8154 C.3       1 <1>         0.0762 
     11 C11        -1.7834    8.3727   -1.3777 C.2       1 <1>         0.2395 
     12 O12        -1.4788    9.2442   -2.1735 O.2       1 <1>        -0.3687 
     13 O13        -1.4757    8.5367   -0.0866 O.3       1 <1>        -0.2917 
     14 H1          1.2268    4.4672   -1.3155 H         1 <1>         0.2219 
     15 C15        -4.4816    8.2216   -5.0366 C.3       1 <1>        -0.0325 
     16 C16        -5.6557    9.2056   -5.2793 C.3       1 <1>         0.0328 
     17 N17        -5.9278    9.2877   -6.7126 N.am      1 <1>        -0.2625 
     18 C18        -6.5982    8.2946   -7.3324 C.2       1 <1>         0.3200 
     19 O19        -7.0362    7.3172   -6.7502 O.2       1 <1>        -0.3775 
     20 O20        -6.7108    8.5217   -8.6486 O.3       1 <1>        -0.2581 
     21 C21        -7.3516    7.4957   -9.4409 C.3       1 <1>         0.0905 
     22 C22        -6.5606    6.1554   -9.4085 C.3       1 <1>        -0.0320 
     23 C23        -7.2909    8.0706  -10.8848 C.3       1 <1>        -0.0320 
     24 C24        -8.8445    7.2834   -9.0543 C.3       1 <1>        -0.0320 
     25 H2         -4.1483    4.3797   -1.4828 H         1 <1>         0.0540 
     26 H3         -4.1035    1.9058   -1.0884 H         1 <1>         0.0510 
     27 H4         -1.9546    0.7121   -0.8197 H         1 <1>         0.0530 
     28 H5          0.4238    6.8259   -1.7003 H         1 <1>         0.0804 
     29 C29        -2.9415    7.1354   -3.2999 C.3       1 <1>        -0.0277 
     30 H6          0.2185    1.9500   -0.9464 H         1 <1>         0.0541 
     31 C31        -4.0970    8.1488   -3.5337 C.3       1 <1>        -0.0478 
     32 H7         -3.3633    6.9520   -1.1709 H         1 <1>         0.0635 
     33 H8         -1.7240    7.8127    0.4751 H         1 <1>         0.2540 
     34 H9         -4.7665    7.2184   -5.3934 H         1 <1>         0.0285 
     35 H10        -3.6117    8.5596   -5.6233 H         1 <1>         0.0285 
     36 H11        -5.3886   10.2014   -4.8868 H         1 <1>         0.0519 
     37 H12        -6.5527    8.8642   -4.7362 H         1 <1>         0.0519 
     38 H13        -5.5743   10.0647   -7.2369 H         1 <1>         0.1867 
     39 H14        -6.6361    5.6490   -8.4363 H         1 <1>         0.0260 
     40 H15        -5.4970    6.3481   -9.6148 H         1 <1>         0.0260 
     41 H16        -6.9467    5.4641  -10.1731 H         1 <1>         0.0260 
     42 H17        -7.7411    7.3785  -11.6129 H         1 <1>         0.0260 
     43 H18        -6.2449    8.2518  -11.1773 H         1 <1>         0.0260 
     44 H19        -7.8312    9.0288  -10.9349 H         1 <1>         0.0260 
     45 H20        -9.3642    8.2531   -9.0291 H         1 <1>         0.0260 
     46 H21        -8.9600    6.8052   -8.0722 H         1 <1>         0.0260 
     47 H22        -9.3399    6.6382   -9.7955 H         1 <1>         0.0260 
     48 H23        -2.0776    7.3880   -3.9361 H         1 <1>         0.0307 
     49 H24        -3.2961    6.1327   -3.5921 H         1 <1>         0.0307 
     50 H25        -4.9777    7.8392   -2.9468 H         1 <1>         0.0269 
     51 H26        -3.7964    9.1526   -3.1944 H         1 <1>         0.0269 
@<TRIPOS>BOND
     1    8    1 1    
     2    2    1 1    
     3    3    2 ar   
     4    7    3 1    
     5    3    4 ar   
     6    4    5 ar   
     7    5    6 ar   
     8    7    8 2    
     9    9    6 ar   
    10    2    9 ar   
    11   10    7 1    
    12   10   11 1    
    13   11   12 2    
    14   11   13 1    
    15   10   29 1    
    16   31   15 1    
    17   15   16 1    
    18   16   17 1    
    19   17   18 am   
    20   18   19 2    
    21   18   20 1    
    22   20   21 1    
    23   21   22 1    
    24   21   23 1    
    25   21   24 1    
    26    1   14 1    
    27    4   25 1    
    28    5   26 1    
    29    6   27 1    
    30    8   28 1    
    31    9   30 1    
    32   29   31 1    
    33   10   32 1    
    34   13   33 1    
    35   15   34 1    
    36   15   35 1    
    37   16   36 1    
    38   16   37 1    
    39   17   38 1    
    40   22   39 1    
    41   22   40 1    
    42   22   41 1    
    43   23   42 1    
    44   23   43 1    
    45   23   44 1    
    46   24   45 1    
    47   24   46 1    
    48   24   47 1    
    49   29   48 1    
    50   29   49 1    
    51   31   50 1    
    52   31   51 1    
@<TRIPOS>SUBSTRUCTURE
     1 ****        7 TEMP              0 ****  ****    0 ROOT 
@<TRIPOS>NORMAL
@<TRIPOS>FF_PBC
FORCE_FIELD_SETUP_FEATURE Force Field Setup information
v1.0  0 0.000000 0.000000 0.000000 0.000000 0.000000 0.000000 NONE 0 0 0 0 1 0 0 0 0 0 0 0 0
@<TRIPOS>RENDERING_ATTRS
ANTIALIASED_LINES 
1,2,3,4,5,6,7,8,9,10,11,12,13,15,16,17,18,19,20,21,22,23,24,29,31
