#	Name:			PISM00945
#	Creating user name:	baoopengkun
#	Creation time:		Wed Dec 12 23:27:48 2018

#	Modifying user name:	baoopengkun
#	Modification time:	Wed Dec 12 23:31:08 2018

@<TRIPOS>MOLECULE
PISM00945
   30    31     1     1     0
SMALL
GAST_HUCK


@<TRIPOS>ATOM
      1 O1          8.1958   -9.7898    8.7616 O.2       1 <1>        -0.3646 
      2 C2          7.1616   -9.4286    8.2219 C.2       1 <1>         0.2529 
      3 O3          7.1122   -8.2450    7.6030 O.3       1 <1>        -0.2955 
      4 C4          5.9346  -10.3164    8.2561 C.ar      1 <1>         0.0827 
      5 C5          5.9773  -11.5173    8.9746 C.ar      1 <1>        -0.0510 
      6 C6          4.8560  -12.3483    9.0361 C.ar      1 <1>        -0.0682 
      7 C7          3.6771  -11.9681    8.3918 C.ar      1 <1>        -0.0678 
      8 C8          3.6296  -10.7665    7.6802 C.ar      1 <1>        -0.0337 
      9 C9          4.7634   -9.9493    7.5760 C.ar      1 <1>         0.0792 
     10 N10         4.7232   -8.8155    6.8291 N.pl3     1 <1>        -0.2737 
     11 C11         3.8984   -8.6867    5.7616 C.ar      1 <1>         0.0627 
     12 C12         3.8401   -9.7095    4.8081 C.ar      1 <1>        -0.0455 
     13 C13         3.0282   -9.5780    3.6793 C.ar      1 <1>        -0.0784 
     14 C14         2.2990   -8.4027    3.4872 C.ar      1 <1>        -0.0667 
     15 C15         2.3582   -7.3763    4.4337 C.ar      1 <1>         0.0314 
     16 C16         3.1156   -7.5343    5.6025 C.ar      1 <1>        -0.0085 
     17 C17         3.0835   -6.4630    6.7036 C.3       1 <1>        -0.0331 
     18 Cl18        1.4710   -5.8952    4.1250 Cl        1 <1>        -0.0807 
     19 H1          7.9492   -7.7938    7.6526 H         1 <1>         0.2519 
     20 H2          6.8852  -11.8132    9.4912 H         1 <1>         0.0639 
     21 H3          4.9000  -13.2850    9.5839 H         1 <1>         0.0526 
     22 H4          2.7990  -12.6050    8.4453 H         1 <1>         0.0622 
     23 H5          2.6951  -10.4735    7.2129 H         1 <1>         0.0541 
     24 H6          5.3689   -8.0390    7.0488 H         1 <1>         0.2087 
     25 H7          4.4322  -10.6097    4.9385 H         1 <1>         0.0512 
     26 H8          2.9675  -10.3831    2.9532 H         1 <1>         0.0529 
     27 H9          1.6852   -8.2850    2.5999 H         1 <1>         0.0503 
     28 H10         3.2620   -6.9065    7.6946 H         1 <1>         0.0369 
     29 H11         2.1064   -5.9605    6.7471 H         1 <1>         0.0369 
     30 H12         3.8630   -5.7148    6.4971 H         1 <1>         0.0369 
@<TRIPOS>BOND
     1    2    1 2    
     2    2    3 1    
     3    2    4 1    
     4    4    5 ar   
     5    5    6 ar   
     6    6    7 ar   
     7    7    8 ar   
     8    8    9 ar   
     9    4    9 ar   
    10    9   10 1    
    11   10   11 1    
    12   11   12 ar   
    13   12   13 ar   
    14   13   14 ar   
    15   14   15 ar   
    16   15   16 ar   
    17   11   16 ar   
    18   16   17 1    
    19   15   18 1    
    20    3   19 1    
    21    5   20 1    
    22    6   21 1    
    23    7   22 1    
    24    8   23 1    
    25   10   24 1    
    26   12   25 1    
    27   13   26 1    
    28   14   27 1    
    29   17   28 1    
    30   17   29 1    
    31   17   30 1    
@<TRIPOS>SUBSTRUCTURE
     1 ****        2 TEMP              0 ****  ****    0 ROOT 
@<TRIPOS>NORMAL
@<TRIPOS>FF_PBC
FORCE_FIELD_SETUP_FEATURE Force Field Setup information
v1.0  0 0.000000 0.000000 0.000000 0.000000 0.000000 0.000000 NONE 0 0 0 0 1 0 0 0 0 0 0 0 0
