#	Name:			PISM00335
#	Creating user name:	malab
#	Creation time:		Fri Apr 05 17:16:53 2019

#	Modifying user name:	malab
#	Modification time:	Fri Apr 05 17:17:36 2019

@<TRIPOS>MOLECULE
PISM00335
   40    40     1     1     0
SMALL
GAST_HUCK


@<TRIPOS>ATOM
      1 C1        -15.3937   -9.8596  -18.5171 C.3       1 <1>        -0.0542 
      2 C2        -14.5180  -10.4657  -19.6640 C.3       1 <1>         0.0202 
      3 C3        -15.4330  -10.7653  -20.8864 C.3       1 <1>         0.0297 
      4 C4        -16.4782  -11.7826  -20.5071 C.2       1 <1>         0.1060 
      5 C5        -16.0392  -12.9581  -19.6728 C.3       1 <1>         0.0271 
      6 C6        -14.4943  -13.0999  -19.6834 C.3       1 <1>         0.0117 
      7 C7        -13.7697  -11.7841  -19.2323 C.3       1 <1>         0.1338 
      8 C8        -13.4941   -9.3606  -20.0725 C.3       1 <1>        -0.0542 
      9 O9        -17.6407  -11.6618  -20.8597 O.2       1 <1>        -0.3916 
     10 C10       -14.0784  -14.3575  -18.8625 C.3       1 <1>        -0.0568 
     11 O11       -12.4535  -11.7711  -19.8235 O.3       1 <1>        -0.3764 
     12 C12       -13.5771  -11.7871  -17.7824 C.1       1 <1>        -0.0746 
     13 C13       -13.4199  -11.7872  -16.5903 C.1       1 <1>        -0.0831 
     14 C14       -13.2311  -11.7820  -15.1623 C.2       1 <1>        -0.0106 
     15 C15       -13.7891  -12.9555  -14.3933 C.3       1 <1>        -0.0335 
     16 C16       -12.5846  -10.7682  -14.5678 C.2       1 <1>        -0.0518 
     17 C17       -12.0067   -9.5708  -15.2889 C.3       1 <1>         0.0667 
     18 O18       -10.5919   -9.4976  -15.0529 O.3       1 <1>        -0.3842 
     19 H1        -15.9923   -9.0149  -18.8914 H         1 <1>         0.0238 
     20 H2        -14.7650   -9.4747  -17.6996 H         1 <1>         0.0238 
     21 H3        -16.0888  -10.5924  -18.0877 H         1 <1>         0.0238 
     22 H4        -14.8419  -11.1520  -21.7310 H         1 <1>         0.0500 
     23 H5        -15.9316   -9.8434  -21.2262 H         1 <1>         0.0500 
     24 H6        -16.4958  -13.8667  -20.0973 H         1 <1>         0.0498 
     25 H7        -16.4079  -12.8503  -18.6422 H         1 <1>         0.0498 
     26 H8        -14.2007  -13.2933  -20.7307 H         1 <1>         0.0360 
     27 H9        -12.7848   -9.1762  -19.2506 H         1 <1>         0.0238 
     28 H10       -14.0072   -8.4139  -20.3018 H         1 <1>         0.0238 
     29 H11       -12.9229   -9.6511  -20.9675 H         1 <1>         0.0238 
     30 H12       -12.9873  -14.4939  -18.8550 H         1 <1>         0.0235 
     31 H13       -14.5272  -15.2617  -19.3030 H         1 <1>         0.0235 
     32 H14       -14.4263  -14.2826  -17.8207 H         1 <1>         0.0235 
     33 H15       -11.8976  -12.5013  -19.5753 H         1 <1>         0.2113 
     34 H16       -14.8771  -13.0069  -14.5504 H         1 <1>         0.0355 
     35 H17       -13.5978  -12.8871  -13.3117 H         1 <1>         0.0355 
     36 H18       -13.3345  -13.8850  -14.7683 H         1 <1>         0.0355 
     37 H19       -12.4478  -10.7813  -13.4862 H         1 <1>         0.0552 
     38 H20       -12.4610   -8.6604  -14.8698 H         1 <1>         0.0707 
     39 H21       -12.1972   -9.5699  -16.3741 H         1 <1>         0.0707 
     40 H22       -10.1295  -10.2561  -15.3958 H         1 <1>         0.2127 
@<TRIPOS>BOND
     1    2    1 1    
     2    2    3 1    
     3    3    4 1    
     4    4    5 1    
     5    5    6 1    
     6    6    7 1    
     7    2    7 1    
     8    2    8 1    
     9    4    9 2    
    10    6   10 1    
    11    7   11 1    
    12    7   12 1    
    13   12   13 3    
    14   13   14 1    
    15   14   15 1    
    16   14   16 2    
    17   16   17 1    
    18   17   18 1    
    19    1   19 1    
    20    1   20 1    
    21    1   21 1    
    22    3   22 1    
    23    3   23 1    
    24    5   24 1    
    25    5   25 1    
    26    6   26 1    
    27    8   27 1    
    28    8   28 1    
    29    8   29 1    
    30   10   30 1    
    31   10   31 1    
    32   10   32 1    
    33   11   33 1    
    34   15   34 1    
    35   15   35 1    
    36   15   36 1    
    37   16   37 1    
    38   17   38 1    
    39   17   39 1    
    40   18   40 1    
@<TRIPOS>SUBSTRUCTURE
     1 ****        2 TEMP              0 ****  ****    0 ROOT 
@<TRIPOS>NORMAL
@<TRIPOS>FF_PBC
FORCE_FIELD_SETUP_FEATURE Force Field Setup information
v1.0  0 0.000000 0.000000 0.000000 0.000000 0.000000 0.000000 NONE 0 0 0 0 0 0 0 0 0 0 0 0 0
