#	Name:			PISM01152
#	Creating user name:	14062
#	Creation time:		Sat Apr 06 20:11:37 2019

#	Modifying user name:	14062
#	Modification time:	Sat Apr 06 20:18:23 2019

@<TRIPOS>MOLECULE
PISM01152
   69    72     1     1     0
SMALL
GAST_HUCK


@<TRIPOS>ATOM
      1 C1         -5.3859    1.2496   -5.4590 C.2       1 <1>        -0.0797 
      2 C2         -6.3738    0.3683   -5.6598 C.2       1 <1>        -0.0760 
      3 C3         -6.3304   -1.0569   -5.0912 C.3       1 <1>         0.0051 
      4 C4         -4.9036   -1.5102   -4.5382 C.3       1 <1>         0.0094 
      5 C5         -3.7219   -0.5618   -4.9709 C.3       1 <1>         0.0130 
      6 C6         -4.2193    0.8755   -4.6121 C.3       1 <1>         0.0727 
      7 C7         -7.5840    0.8033   -6.4655 C.3       1 <1>        -0.0399 
      8 O8         -3.1788    1.8713   -4.6477 O.3       1 <1>        -0.3625 
      9 C9         -2.0947    1.5913   -3.7269 C.3       1 <1>         0.1206 
     10 C10        -2.2843    0.2277   -3.0554 C.3       1 <1>         0.1276 
     11 C11        -2.3599   -0.7923   -4.1926 C.3       1 <1>         0.0354 
     12 C12        -0.8829    1.2145   -4.6074 C.3       1 <1>         0.1151 
     13 C13        -1.0374   -0.3191   -4.8827 C.3       1 <1>         0.1221 
     14 H1         -5.4000    2.2583   -5.8726 H         1 <1>         0.0267 
     15 C15        -7.0118   -2.0511   -6.0995 C.3       1 <1>         0.0325 
     16 H3         -7.0055   -1.0385   -4.2186 H         1 <1>         0.0475 
     17 C17        -4.6136   -3.0297   -4.7589 C.3       1 <1>         0.0824 
     18 H5         -4.9292   -1.4221   -3.4376 H         1 <1>         0.0359 
     19 O19        -5.6022   -3.7773   -4.0175 O.3       1 <1>        -0.2766 
     20 H7         -4.6486    0.9330   -3.5972 H         1 <1>         0.0676 
     21 H8         -7.6738    0.2268   -7.3964 H         1 <1>         0.0375 
     22 H9         -7.5337    1.8633   -6.7568 H         1 <1>         0.0375 
     23 H10        -8.4958    0.6888   -5.8636 H         1 <1>         0.0375 
     24 H11        -1.9063    2.4286   -3.0372 H         1 <1>         0.0654 
     25 C25        -3.0307    0.0429   -1.6716 C.3       1 <1>         0.0805 
     26 O26        -1.6321   -0.0680   -1.8556 O.3       1 <1>        -0.3651 
     27 C27        -3.5209   -0.7135   -6.5106 C.3       1 <1>        -0.0551 
     28 H15         0.0414    1.3926   -4.0335 H         1 <1>         0.0650 
     29 O29        -0.8172    2.0363   -5.7872 O.3       1 <1>        -0.3862 
     30 O30         0.0208   -1.0625   -4.2297 O.3       1 <1>        -0.2706 
     31 H18        -0.9864   -0.5603   -5.9539 H         1 <1>         0.0680 
     32 C32         1.2453   -0.8590   -4.7340 C.2       1 <1>         0.2310 
     33 O33         1.4691   -0.1400   -5.6940 O.2       1 <1>        -0.3707 
     34 C34         2.3491   -1.5917   -4.0274 C.3       1 <1>         0.0372 
     35 H35        -2.2226   -1.8010   -3.7890 H         1 <1>         0.0367 
     36 C36        -5.5363   -5.1033   -4.1999 C.2       1 <1>         0.2306 
     37 C37        -6.5566   -5.9024   -3.4412 C.3       1 <1>         0.0372 
     38 O38        -4.7070   -5.6414   -4.9160 O.2       1 <1>        -0.3707 
     39 C39        -8.5208   -1.9686   -6.1828 C.2       1 <1>         0.1073 
     40 O40        -9.1883   -1.5961   -5.2320 O.2       1 <1>        -0.3914 
     41 C41        -9.2074   -2.3929   -7.4595 C.3       1 <1>         0.0236 
     42 C42       -10.2572   -3.5084   -7.1895 C.3       1 <1>        -0.0309 
     43 C43       -11.0059   -3.8744   -8.5011 C.3       1 <1>        -0.0605 
     44 C44        -9.5839   -4.7705   -6.5816 C.3       1 <1>        -0.0605 
     45 H2         -6.9387   -3.0992   -5.7956 H         1 <1>         0.0518 
     46 H4         -6.5378   -1.9578   -7.0868 H         1 <1>         0.0518 
     47 H6         -3.6409   -3.3548   -4.3690 H         1 <1>         0.0618 
     48 H12        -4.6182   -3.2628   -5.8357 H         1 <1>         0.0618 
     49 H13        -3.4112   -0.9364   -1.3460 H         1 <1>         0.0590 
     50 H14        -3.2335    0.9027   -1.0161 H         1 <1>         0.0590 
     51 H16        -2.9591    0.1355   -6.9214 H         1 <1>         0.0237 
     52 H17        -4.4677   -0.7417   -7.0631 H         1 <1>         0.0237 
     53 H19        -2.9823   -1.6456   -6.7380 H         1 <1>         0.0237 
     54 H20        -1.6495    2.0479   -6.2487 H         1 <1>         0.2100 
     55 H21         2.3624   -1.2973   -2.9679 H         1 <1>         0.0483 
     56 H22         3.3227   -1.3512   -4.4798 H         1 <1>         0.0483 
     57 H23         2.1752   -2.6749   -4.1011 H         1 <1>         0.0483 
     58 H24        -6.6965   -6.8858   -3.9138 H         1 <1>         0.0483 
     59 H25        -7.5200   -5.3710   -3.4295 H         1 <1>         0.0483 
     60 H26        -6.2078   -6.0436   -2.4081 H         1 <1>         0.0483 
     61 H27        -8.4872   -2.7511   -8.2108 H         1 <1>         0.0497 
     62 H28        -9.7119   -1.5035   -7.8679 H         1 <1>         0.0497 
     63 H29       -11.0002   -3.1276   -6.4658 H         1 <1>         0.0320 
     64 H30       -11.5032   -2.9863   -8.9215 H         1 <1>         0.0234 
     65 H31       -11.7745   -4.6384   -8.3054 H         1 <1>         0.0234 
     66 H32       -10.3025   -4.2701   -9.2498 H         1 <1>         0.0234 
     67 H33       -10.3324   -5.5612   -6.4174 H         1 <1>         0.0234 
     68 H34        -9.1190   -4.5374   -5.6114 H         1 <1>         0.0234 
     69 H36        -8.8079   -5.1581   -7.2595 H         1 <1>         0.0234 
@<TRIPOS>BOND
     1    2    1 2    
     2    2    3 1    
     3    3    4 1    
     4    4    5 1    
     5    5    6 1    
     6    1    6 1    
     7    2    7 1    
     8    6    8 1    
     9    8    9 1    
    10    9   10 1    
    11   10   11 1    
    12    5   11 1    
    13    9   12 1    
    14   12   13 1    
    15   11   13 1    
    16    1   14 1    
    17    3   15 1    
    18    3   16 1    
    19    4   17 1    
    20    4   18 1    
    21   17   19 1    
    22    6   20 1    
    23    7   21 1    
    24    7   22 1    
    25    7   23 1    
    26    9   24 1    
    27   10   25 1    
    28   10   26 1    
    29    5   27 1    
    30   12   28 1    
    31   12   29 1    
    32   13   30 1    
    33   13   31 1    
    34   26   25 1    
    35   30   32 1    
    36   32   33 2    
    37   32   34 1    
    38   11   35 1    
    39   19   36 1    
    40   36   37 1    
    41   36   38 2    
    42   15   39 1    
    43   39   40 2    
    44   39   41 1    
    45   41   42 1    
    46   42   43 1    
    47   42   44 1    
    48   15   45 1    
    49   15   46 1    
    50   17   47 1    
    51   17   48 1    
    52   25   49 1    
    53   25   50 1    
    54   27   51 1    
    55   27   52 1    
    56   27   53 1    
    57   29   54 1    
    58   34   55 1    
    59   34   56 1    
    60   34   57 1    
    61   37   58 1    
    62   37   59 1    
    63   37   60 1    
    64   41   61 1    
    65   41   62 1    
    66   42   63 1    
    67   43   64 1    
    68   43   65 1    
    69   43   66 1    
    70   44   67 1    
    71   44   68 1    
    72   44   69 1    
@<TRIPOS>SUBSTRUCTURE
     1 ****        2 TEMP              0 ****  ****    0 ROOT 
@<TRIPOS>NORMAL
@<TRIPOS>FF_PBC
FORCE_FIELD_SETUP_FEATURE Force Field Setup information
v1.0  0 0.000000 0.000000 0.000000 0.000000 0.000000 0.000000 NONE 0 0 0 0 1 0 0 0 0 0 0 0 0
