#	Name:			PISM00925
#	Creating user name:	baoopengkun
#	Creation time:		Wed Dec 12 20:40:40 2018

#	Modifying user name:	baoopengkun
#	Modification time:	Wed Dec 12 20:43:55 2018

@<TRIPOS>MOLECULE
PISM00925
   61    63     1     1     0
SMALL
GAST_HUCK


@<TRIPOS>ATOM
      1 C1         10.0330   -6.2611    6.3788 C.ar      1 <1>        -0.0310 
      2 C2         10.4454   -7.5945    6.2794 C.ar      1 <1>         0.0409 
      3 C3         11.7228   -7.9563    6.7192 C.ar      1 <1>        -0.0377 
      4 C4         12.5766   -6.9844    7.2454 C.ar      1 <1>        -0.0378 
      5 C5         12.1545   -5.6553    7.3343 C.ar      1 <1>        -0.0318 
      6 C6         10.8783   -5.2656    6.9057 C.ar      1 <1>        -0.0146 
      7 C7          9.4809   -8.6307    5.6891 C.3       1 <1>         0.3750 
      8 F8          8.9554   -8.1529    4.5287 F         1 <1>        -0.2204 
      9 F9          8.4725   -8.8466    6.5751 F         1 <1>        -0.2204 
     10 F10        10.1063   -9.8113    5.4317 F         1 <1>        -0.2204 
     11 C11        10.5583   -3.7524    7.0743 C.3       1 <1>         0.0004 
     12 C12         9.3601   -2.7630    6.7705 C.3       1 <1>         0.0747 
     13 C13         9.8141   -1.6218    5.7976 C.3       1 <1>        -0.0251 
     14 C14         8.6788   -0.6000    5.5183 C.3       1 <1>         0.0007 
     15 N15         7.4896   -1.2966    4.9748 N.3       1 <1>        -0.2915 
     16 C16         6.9835   -2.3593    5.8746 C.3       1 <1>         0.0007 
     17 C17         8.0902   -3.4119    6.1343 C.3       1 <1>        -0.0251 
     18 C18         8.9901   -2.0997    8.0928 C.2       1 <1>         0.2638 
     19 O19         9.4417   -1.0166    8.4331 O.2       1 <1>        -0.3118 
     20 O20         8.1285   -2.7875    8.8576 O.3       1 <1>        -0.2773 
     21 C21         7.7442   -2.1036   10.0667 C.3       1 <1>         0.0731 
     22 C22         6.7330   -2.9985   10.8215 C.3       1 <1>        -0.0372 
     23 C23         6.4342   -0.3953    4.4465 C.3       1 <1>         0.0330 
     24 C24         5.7249    0.3632    5.5793 C.ar      1 <1>        -0.0282 
     25 C25         6.1988    1.6097    6.0055 C.ar      1 <1>        -0.0573 
     26 C26         5.5855    2.2727    7.0729 C.ar      1 <1>        -0.0525 
     27 C27         4.4843    1.6981    7.7132 C.ar      1 <1>         0.0184 
     28 C28         3.9828    0.4727    7.2671 C.ar      1 <1>        -0.0525 
     29 C29         4.5965   -0.1871    6.1989 C.ar      1 <1>        -0.0573 
     30 C30         3.8630    2.3612    8.8313 C.1       1 <1>        -0.0697 
     31 C31         3.3412    2.9091    9.7673 C.1       1 <1>        -0.0727 
     32 C32         2.7086    3.5685   10.9021 C.3       1 <1>         0.1039 
     33 O33         1.2930    3.3243   10.8370 O.3       1 <1>        -0.3828 
     34 H1          9.0374   -6.0126    6.0379 H         1 <1>         0.0780 
     35 H2         12.0579   -8.9869    6.6565 H         1 <1>         0.0802 
     36 H3         13.5698   -7.2626    7.5860 H         1 <1>         0.0683 
     37 H4         12.8322   -4.9124    7.7446 H         1 <1>         0.0803 
     38 H5          9.9178   -4.2852    7.7960 H         1 <1>         0.0422 
     39 H6         10.6448   -3.9358    5.9934 H         1 <1>         0.0422 
     40 H7         10.1004   -2.0382    4.8174 H         1 <1>         0.0270 
     41 H8         10.6954   -1.1008    6.2073 H         1 <1>         0.0270 
     42 H9          9.0522    0.1339    4.7846 H         1 <1>         0.0427 
     43 H10         8.4056   -0.0466    6.4294 H         1 <1>         0.0427 
     44 H11         6.1285   -2.8727    5.4041 H         1 <1>         0.0427 
     45 H12         6.6375   -1.9284    6.8279 H         1 <1>         0.0427 
     46 H13         8.3451   -3.8648    5.1626 H         1 <1>         0.0270 
     47 H14         7.6759   -4.1941    6.7909 H         1 <1>         0.0270 
     48 H15         7.2634   -1.1378    9.8316 H         1 <1>         0.0609 
     49 H16         8.6226   -1.9224   10.7098 H         1 <1>         0.0609 
     50 H17         5.8482   -3.1772   10.1908 H         1 <1>         0.0255 
     51 H18         6.4118   -2.5145   11.7573 H         1 <1>         0.0255 
     52 H19         7.1967   -3.9677   11.0625 H         1 <1>         0.0255 
     53 H20         5.6997   -0.9877    3.8790 H         1 <1>         0.0592 
     54 H21         6.8691    0.3207    3.7320 H         1 <1>         0.0592 
     55 H22         7.0490    2.0687    5.5111 H         1 <1>         0.0560 
     56 H23         5.9651    3.2337    7.4055 H         1 <1>         0.0614 
     57 H24         3.1163    0.0327    7.7514 H         1 <1>         0.0614 
     58 H25         4.1906   -1.1334    5.8563 H         1 <1>         0.0560 
     59 H26         2.9330    4.6460   10.8441 H         1 <1>         0.0691 
     60 H27         3.1436    3.1530   11.8258 H         1 <1>         0.0691 
     61 H28         0.8138    3.7259   11.5552 H         1 <1>         0.2107 
@<TRIPOS>BOND
     1    2    1 ar   
     2    2    3 ar   
     3    3    4 ar   
     4    4    5 ar   
     5    5    6 ar   
     6    1    6 ar   
     7    2    7 1    
     8    7    8 1    
     9    7    9 1    
    10    7   10 1    
    11    6   11 1    
    12   11   12 1    
    13   12   13 1    
    14   13   14 1    
    15   14   15 1    
    16   15   16 1    
    17   16   17 1    
    18   12   17 1    
    19   12   18 1    
    20   18   19 2    
    21   18   20 1    
    22   20   21 1    
    23   21   22 1    
    24   15   23 1    
    25   23   24 1    
    26   24   25 ar   
    27   25   26 ar   
    28   26   27 ar   
    29   27   28 ar   
    30   28   29 ar   
    31   24   29 ar   
    32   27   30 1    
    33   30   31 3    
    34   31   32 1    
    35   32   33 1    
    36    1   34 1    
    37    3   35 1    
    38    4   36 1    
    39    5   37 1    
    40   11   38 1    
    41   11   39 1    
    42   13   40 1    
    43   13   41 1    
    44   14   42 1    
    45   14   43 1    
    46   16   44 1    
    47   16   45 1    
    48   17   46 1    
    49   17   47 1    
    50   21   48 1    
    51   21   49 1    
    52   22   50 1    
    53   22   51 1    
    54   22   52 1    
    55   23   53 1    
    56   23   54 1    
    57   25   55 1    
    58   26   56 1    
    59   28   57 1    
    60   29   58 1    
    61   32   59 1    
    62   32   60 1    
    63   33   61 1    
@<TRIPOS>SUBSTRUCTURE
     1 ****        2 TEMP              0 ****  ****    0 ROOT 
@<TRIPOS>NORMAL
@<TRIPOS>FF_PBC
FORCE_FIELD_SETUP_FEATURE Force Field Setup information
v1.0  0 0.000000 0.000000 0.000000 0.000000 0.000000 0.000000 NONE 0 0 0 0 1 0 0 0 0 0 0 0 0
