#	Name:			PISM01181
#	Creating user name:	baoopengkun
#	Creation time:		Tue Dec 18 17:31:12 2018

#	Modifying user name:	baoopengkun
#	Modification time:	Tue Dec 18 17:42:01 2018

@<TRIPOS>MOLECULE
PISM01181
  130   132     1     1     0
SMALL
GAST_HUCK


@<TRIPOS>ATOM
      1 C1         17.2008   31.7878  -18.4183 C.3       1 <1>         0.0077 
      2 C2         15.6663   31.9601  -18.6528 C.3       1 <1>         0.0225 
      3 C3         14.8305   31.9371  -17.3934 C.2       1 <1>        -0.0026 
      4 C4         14.6826   33.0265  -16.6268 C.2       1 <1>         0.0110 
      5 C5         13.8159   33.1084  -15.4355 C.2       1 <1>        -0.0296 
      6 C6         12.6392   32.4767  -15.3285 C.2       1 <1>        -0.1201 
      7 C7         11.7420   32.5934  -14.1111 C.3       1 <1>        -0.0978 
      8 C8         10.4268   31.7598  -14.3133 C.3       1 <1>        -0.1069 
      9 C9         10.5679   30.2138  -14.3344 C.3       1 <1>        -0.0801 
     10 C10        12.5008   32.1942  -12.8018 C.3       1 <1>        -0.1017 
     11 C11        13.5526   31.0528  -12.9597 C.3       1 <1>        -0.0409 
     12 C12        13.9452   30.4689  -11.5755 C.3       1 <1>         0.0658 
     13 O13        12.7799   29.8136  -11.0359 O.3       1 <1>        -0.3450 
     14 C14        12.9162   29.3901   -9.6656 C.3       1 <1>         0.1734 
     15 C15        14.0428   28.3221   -9.6324 C.3       1 <1>         0.0322 
     16 C16        15.3595   28.9138  -10.1999 C.3       1 <1>         0.0954 
     17 C17        15.1256   29.4578  -11.6384 C.3       1 <1>         0.0131 
     18 O18        16.3881   27.9038  -10.2624 O.3       1 <1>        -0.2792 
     19 C19        16.8807   27.5135   -9.0784 C.2       1 <1>         0.2335 
     20 O20        16.5890   28.0726   -8.0333 O.2       1 <1>        -0.3745 
     21 C21        17.8195   26.3814   -9.0279 C.2       1 <1>         0.0096 
     22 C22        17.9709   25.5322  -10.0526 C.2       1 <1>        -0.0524 
     23 C23        18.9518   24.3823  -10.0343 C.3       1 <1>         0.0230 
     24 C24        19.8842   24.4132  -11.2862 C.3       1 <1>         0.0889 
     25 C25        20.4219   25.8374  -11.6429 C.3       1 <1>         0.0588 
     26 C26        21.1661   25.7918  -12.9631 C.2       1 <1>         0.1158 
     27 O27        21.5933   24.7362  -13.4018 O.2       1 <1>        -0.3909 
     28 C28        21.3807   27.0756  -13.7440 C.3       1 <1>         0.0583 
     29 C29        20.2682   27.2092  -14.8415 C.3       1 <1>         0.0910 
     30 C30        20.4438   28.4083  -15.8406 C.3       1 <1>         0.0622 
     31 C31        19.1030   28.9729  -16.3152 C.2       1 <1>         0.1658 
     32 C32        19.0536   30.1302  -17.3218 C.3       1 <1>         0.1519 
     33 C33        17.5480   30.4480  -17.6676 C.3       1 <1>         0.0958 
     34 O34        13.1929   30.5960   -8.9133 O.3       1 <1>        -0.3449 
     35 C35        11.5256   28.8033   -9.3010 C.3       1 <1>         0.0019 
     36 C36        11.3465   28.6689   -7.7700 C.3       1 <1>        -0.0432 
     37 C37        11.6250   30.0278   -7.0700 C.3       1 <1>        -0.0172 
     38 C38        13.0343   30.5505   -7.4747 C.3       1 <1>         0.0668 
     39 C39        10.5371   31.0916   -7.4010 C.3       1 <1>        -0.0601 
     40 H40        13.0860   31.6204   -7.2175 H         1 <1>         0.0600 
     41 C41        14.2129   29.8979   -6.6909 C.3       1 <1>        -0.0004 
     42 C42        14.4240   30.4939   -5.2675 C.3       1 <1>         0.0548 
     43 O43        14.6569   31.9118   -5.3203 O.3       1 <1>        -0.3920 
     44 C44        15.6061   29.7998   -4.5388 C.3       1 <1>        -0.0389 
     45 H45        14.2395   31.3281  -10.9481 H         1 <1>         0.0600 
     46 H46        15.6900   29.7680   -9.5843 H         1 <1>         0.0652 
     47 C47        14.8847   28.3264  -12.6824 C.3       1 <1>        -0.0574 
     48 C48        18.1277   23.0684   -9.9348 C.3       1 <1>        -0.0461 
     49 C49        11.2940   34.0870  -14.0103 C.3       1 <1>        -0.1160 
     50 O50        21.0198   23.5559  -11.0556 O.3       1 <1>        -0.3859 
     51 C51        21.3527   26.3940  -10.5296 C.3       1 <1>        -0.0437 
     52 C52        22.8523   27.0647  -14.2424 C.3       1 <1>        -0.0438 
     53 O53        20.1375   25.9741  -15.5678 O.3       1 <1>        -0.3865 
     54 C54        21.3293   27.9868  -17.0542 C.3       1 <1>        -0.0442 
     55 O55        18.0684   28.4918  -15.8781 O.2       1 <1>        -0.3292 
     56 C56        19.7848   31.3638  -16.7189 C.3       1 <1>        -0.0284 
     57 O57        19.7595   29.6497  -18.4816 O.3       1 <1>        -0.3835 
     58 O58        17.0559   29.3048  -18.3979 O.3       1 <1>        -0.3896 
     59 C59        17.9084   31.9608  -19.7962 C.3       1 <1>        -0.0559 
     60 H1         17.4900   32.6388  -17.7784 H         1 <1>         0.0373 
     61 H2         15.2929   31.2071  -19.3640 H         1 <1>         0.0656 
     62 H3         15.4798   32.9378  -19.1286 H         1 <1>         0.0656 
     63 H4         14.3324   31.0072  -17.1134 H         1 <1>         0.1404 
     64 H5         15.2258   33.9377  -16.8810 H         1 <1>         0.0737 
     65 H6         14.1652   33.7391  -14.6182 H         1 <1>         0.1181 
     66 H7         12.2977   31.8662  -16.1631 H         1 <1>         0.0425 
     67 H8          9.9576   32.0649  -15.2640 H         1 <1>         0.0069 
     68 H9          9.7125   31.9992  -13.5076 H         1 <1>         0.0069 
     69 H10        11.2937   29.8856  -15.0926 H         1 <1>         0.0215 
     70 H11         9.5946   29.7598  -14.5807 H         1 <1>         0.0215 
     71 H12        10.8662   29.8322  -13.3460 H         1 <1>         0.0215 
     72 H13        11.7504   31.9197  -12.0437 H         1 <1>         0.0073 
     73 H14        13.0493   33.0615  -12.3999 H         1 <1>         0.0073 
     74 H15        14.4606   31.4350  -13.4522 H         1 <1>         0.0275 
     75 H16        13.1527   30.2480  -13.5846 H         1 <1>         0.0275 
     76 H17        13.7534   27.4661  -10.2576 H         1 <1>         0.0346 
     77 H18        14.1880   27.9234   -8.6264 H         1 <1>         0.0346 
     78 H19        16.0447   29.9876  -11.9458 H         1 <1>         0.0351 
     79 H20        18.3939   26.2590   -8.1098 H         1 <1>         0.0484 
     80 H21        17.3611   25.6624  -10.9484 H         1 <1>         0.0858 
     81 H22        19.5934   24.4366   -9.1389 H         1 <1>         0.0550 
     82 H23        19.3143   24.0658  -12.1672 H         1 <1>         0.0657 
     83 H24        19.5790   26.5321  -11.7811 H         1 <1>         0.0555 
     84 H25        21.2918   27.9472  -13.0740 H         1 <1>         0.0554 
     85 H26        19.3446   27.3461  -14.2498 H         1 <1>         0.0650 
     86 H27        20.9439   29.1976  -15.2614 H         1 <1>         0.0547 
     87 H28        17.0258   30.5155  -16.6962 H         1 <1>         0.0612 
     88 H29        11.3831   27.8257   -9.7884 H         1 <1>         0.0317 
     89 H30        10.7461   29.4711   -9.6982 H         1 <1>         0.0317 
     90 H31        12.0310   27.8943   -7.3925 H         1 <1>         0.0270 
     91 H32        10.3209   28.3318   -7.5458 H         1 <1>         0.0270 
     92 H33        11.5779   29.8596   -5.9812 H         1 <1>         0.0323 
     93 H34        10.6575   31.9694   -6.7464 H         1 <1>         0.0233 
     94 H35         9.5284   30.6823   -7.2365 H         1 <1>         0.0233 
     95 H36        10.6129   31.4409   -8.4412 H         1 <1>         0.0233 
     96 H37        15.1387   30.0725   -7.2564 H         1 <1>         0.0315 
     97 H38        14.0691   28.8173   -6.5671 H         1 <1>         0.0315 
     98 H39        13.5159   30.3459   -4.6607 H         1 <1>         0.0591 
     99 H41        15.4379   32.1412   -5.8140 H         1 <1>         0.2098 
    100 H42        16.5379   29.9203   -5.1125 H         1 <1>         0.0254 
    101 H43        15.4072   28.7241   -4.4128 H         1 <1>         0.0254 
    102 H44        15.7462   30.2503   -3.5440 H         1 <1>         0.0254 
    103 H47        14.9825   28.7188  -13.7064 H         1 <1>         0.0234 
    104 H48        13.8802   27.8906  -12.5797 H         1 <1>         0.0234 
    105 H49        15.6285   27.5229  -12.5741 H         1 <1>         0.0234 
    106 H50        17.4977   22.9372  -10.8281 H         1 <1>         0.0264 
    107 H51        17.4708   23.1060   -9.0512 H         1 <1>         0.0264 
    108 H52        18.7783   22.1874   -9.8326 H         1 <1>         0.0264 
    109 H53        10.7540   34.3914  -14.9206 H         1 <1>         0.0036 
    110 H54        12.1440   34.7735  -13.8841 H         1 <1>         0.0036 
    111 H55        10.6253   34.2309  -13.1474 H         1 <1>         0.0036 
    112 H56        20.8096   22.6313  -10.9901 H         1 <1>         0.2103 
    113 H57        22.2129   25.7228  -10.3852 H         1 <1>         0.0258 
    114 H58        20.8144   26.4873   -9.5755 H         1 <1>         0.0258 
    115 H59        21.7380   27.3905  -10.7899 H         1 <1>         0.0258 
    116 H60        23.1201   28.0092  -14.7389 H         1 <1>         0.0258 
    117 H61        23.0315   26.2212  -14.9262 H         1 <1>         0.0258 
    118 H62        23.5277   26.9438  -13.3802 H         1 <1>         0.0258 
    119 H63        19.3908   25.9672  -16.1600 H         1 <1>         0.2102 
    120 H64        21.7960   28.8651  -17.5248 H         1 <1>         0.0257 
    121 H65        20.7176   27.4576  -17.8011 H         1 <1>         0.0257 
    122 H66        22.1437   27.3069  -16.7866 H         1 <1>         0.0257 
    123 H67        20.8425   31.1409  -16.5236 H         1 <1>         0.0243 
    124 H68        19.3030   31.6638  -15.7759 H         1 <1>         0.0243 
    125 H69        19.7764   32.2190  -17.4060 H         1 <1>         0.0243 
    126 H70        19.8966   30.2710  -19.1806 H         1 <1>         0.2078 
    127 H71        16.1108   29.2201  -18.4418 H         1 <1>         0.2097 
    128 H72        17.4537   32.7703  -20.3875 H         1 <1>         0.0237 
    129 H73        17.8295   31.0315  -20.3808 H         1 <1>         0.0237 
    130 H74        18.9640   32.2410  -19.6836 H         1 <1>         0.0237 
@<TRIPOS>BOND
     1    2    1 1    
     2    2    3 1    
     3    3    4 2    
     4    4    5 1    
     5    5    6 2    
     6    6    7 1    
     7    7    8 1    
     8    8    9 1    
     9    7   10 1    
    10   10   11 1    
    11   11   12 1    
    12   12   13 1    
    13   13   14 1    
    14   14   15 1    
    15   15   16 1    
    16   16   17 1    
    17   12   17 1    
    18   16   18 1    
    19   18   19 1    
    20   19   20 2    
    21   19   21 1    
    22   21   22 2    
    23   22   23 1    
    24   23   24 1    
    25   24   25 1    
    26   25   26 1    
    27   26   27 2    
    28   26   28 1    
    29   28   29 1    
    30   29   30 1    
    31   30   31 1    
    32   31   32 1    
    33   32   33 1    
    34    1   33 1    
    35   14   34 1    
    36   14   35 1    
    37   35   36 1    
    38   36   37 1    
    39   37   38 1    
    40   34   38 1    
    41   37   39 1    
    42   38   40 1    
    43   38   41 1    
    44   41   42 1    
    45   42   43 1    
    46   42   44 1    
    47   12   45 1    
    48   16   46 1    
    49   17   47 1    
    50   23   48 1    
    51    7   49 1    
    52   24   50 1    
    53   25   51 1    
    54   28   52 1    
    55   29   53 1    
    56   30   54 1    
    57   31   55 2    
    58   32   56 1    
    59   32   57 1    
    60   33   58 1    
    61    1   59 1    
    62    1   60 1    
    63    2   61 1    
    64    2   62 1    
    65    3   63 1    
    66    4   64 1    
    67    5   65 1    
    68    6   66 1    
    69    8   67 1    
    70    8   68 1    
    71    9   69 1    
    72    9   70 1    
    73    9   71 1    
    74   10   72 1    
    75   10   73 1    
    76   11   74 1    
    77   11   75 1    
    78   15   76 1    
    79   15   77 1    
    80   17   78 1    
    81   21   79 1    
    82   22   80 1    
    83   23   81 1    
    84   24   82 1    
    85   25   83 1    
    86   28   84 1    
    87   29   85 1    
    88   30   86 1    
    89   33   87 1    
    90   35   88 1    
    91   35   89 1    
    92   36   90 1    
    93   36   91 1    
    94   37   92 1    
    95   39   93 1    
    96   39   94 1    
    97   39   95 1    
    98   41   96 1    
    99   41   97 1    
   100   42   98 1    
   101   43   99 1    
   102   44  100 1    
   103   44  101 1    
   104   44  102 1    
   105   47  103 1    
   106   47  104 1    
   107   47  105 1    
   108   48  106 1    
   109   48  107 1    
   110   48  108 1    
   111   49  109 1    
   112   49  110 1    
   113   49  111 1    
   114   50  112 1    
   115   51  113 1    
   116   51  114 1    
   117   51  115 1    
   118   52  116 1    
   119   52  117 1    
   120   52  118 1    
   121   53  119 1    
   122   54  120 1    
   123   54  121 1    
   124   54  122 1    
   125   56  123 1    
   126   56  124 1    
   127   56  125 1    
   128   57  126 1    
   129   58  127 1    
   130   59  128 1    
   131   59  129 1    
   132   59  130 1    
@<TRIPOS>SUBSTRUCTURE
     1 ****        2 TEMP              0 ****  ****    0 ROOT 
@<TRIPOS>NORMAL
@<TRIPOS>FF_PBC
FORCE_FIELD_SETUP_FEATURE Force Field Setup information
v1.0  0 0.000000 0.000000 0.000000 0.000000 0.000000 0.000000 NONE 0 0 0 0 1 0 0 0 0 0 0 0 0
