#	Name:			PISM00175
#	Creating user name:	14062
#	Creation time:		Mon Apr 01 17:10:40 2019

#	Modifying user name:	14062
#	Modification time:	Mon Apr 01 17:15:07 2019

@<TRIPOS>MOLECULE
PISM00175
   16    16     1     2     0
SMALL
GAST_HUCK


@<TRIPOS>ATOM
      1 C7          1.6697    4.9075   -9.2335 C.2       1 <1>         0.0897 
      2 C8          2.4760    4.6183  -10.2553 C.2       1 <1>        -0.0510 
      3 C9          3.0878    3.3565   -9.8464 C.2       1 <1>        -0.0463 
      4 C10         2.5378    3.1159   -8.6521 C.2       1 <1>         0.1243 
      5 O11         1.6610    4.0323   -8.2244 O.3       1 <1>        -0.2549 
      6 C12         2.8240    1.9438   -7.8001 C.2       1 <1>        -0.0149 
      7 C13         3.6658    0.9407   -8.0838 C.2       1 <1>         0.0127 
      8 C14         3.8998   -0.2002   -7.1791 C.2       1 <1>         0.2363 
      9 O15         3.3148   -0.2626   -6.1092 O.2       1 <1>        -0.3709 
     10 O16         4.7526   -1.1613   -7.5362 O.3       1 <1>        -0.2983 
     11 H1          1.0501    5.8039   -9.2143 H         1 <1>         0.1076 
     12 H2          2.6427    5.1806  -11.1736 H         1 <1>         0.0388 
     13 H3          3.8168    2.7857  -10.4185 H         1 <1>         0.0455 
     14 H4          2.2830    1.9184   -6.8538 H         1 <1>         0.0741 
     15 H5          4.2274    0.9215   -9.0152 H         1 <1>         0.0564 
     16 H6          4.8150   -1.8374   -6.8703 H         1 <1>         0.2509 
@<TRIPOS>BOND
     1    1    2 2    
     2    2    3 1    
     3    3    4 2    
     4    4    5 1    
     5    1    5 1    
     6    4    6 1    
     7    6    7 2    
     8    7    8 1    
     9    8    9 2    
    10    8   10 1    
    11    1   11 1    
    12    2   12 1    
    13    3   13 1    
    14    6   14 1    
    15    7   15 1    
    16   10   16 1    
@<TRIPOS>SUBSTRUCTURE
     1 ****        1 TEMP              0 ****  ****    0 ROOT 
@<TRIPOS>NORMAL
@<TRIPOS>FF_PBC
FORCE_FIELD_SETUP_FEATURE Force Field Setup information
v1.0  0 0.000000 0.000000 0.000000 0.000000 0.000000 0.000000 NONE 0 0 0 0 1 0 0 0 0 0 0 0 0
@<TRIPOS>RENDERING_ATTRS
ANTIALIASED_LINES 
*
