#	Name:			PISM00977
#	Creating user name:	baoopengkun
#	Creation time:		Fri Jan 11 17:56:21 2019

#	Modifying user name:	baoopengkun
#	Modification time:	Fri Jan 11 17:58:33 2019

@<TRIPOS>MOLECULE
PISM00977
   27    28     1     1     0
SMALL
GAST_HUCK


@<TRIPOS>ATOM
      1 Br1        -6.6715    4.6650   -0.1828 Br        1 <1>        -0.0529 
      2 C2         -5.0214    4.0069    0.3434 C.ar      1 <1>         0.0110 
      3 C3         -4.3287    4.6089    1.3949 C.ar      1 <1>        -0.0557 
      4 C4         -3.0730    4.1254    1.7729 C.ar      1 <1>        -0.0563 
      5 C5         -2.4736    3.0613    1.0830 C.ar      1 <1>        -0.0098 
      6 C6         -3.2085    2.4161    0.0781 C.ar      1 <1>        -0.0154 
      7 C7         -4.4632    2.9044   -0.3065 C.ar      1 <1>        -0.0459 
      8 C8         -1.1726    2.6221    1.3778 C.ar      1 <1>         0.0644 
      9 C9         -0.6702    1.4522    0.7940 C.ar      1 <1>         0.1149 
     10 C10        -1.4367    0.7781   -0.1645 C.ar      1 <1>        -0.0178 
     11 C11        -2.6863    1.2751   -0.5394 C.ar      1 <1>        -0.0486 
     12 O12         0.5982    0.9911    1.1788 O.3       1 <1>        -0.3125 
     13 C13         1.1699   -0.2283    0.6774 C.3       1 <1>         0.0625 
     14 C14        -0.2693    3.3951    2.3179 C.2       1 <1>         0.1187 
     15 O15        -0.2130    4.6119    2.2397 O.2       1 <1>        -0.3903 
     16 C16         0.5953    2.7106    3.3431 C.3       1 <1>         0.0072 
     17 H1         -4.7672    5.4522    1.9192 H         1 <1>         0.0634 
     18 H2         -2.5839    4.5946    2.6187 H         1 <1>         0.0592 
     19 H3         -5.0177    2.4327   -1.1114 H         1 <1>         0.0666 
     20 H4         -1.0842   -0.1305   -0.6369 H         1 <1>         0.0609 
     21 H5         -3.2492    0.7624   -1.3141 H         1 <1>         0.0679 
     22 H6          0.5403   -1.0951    0.9308 H         1 <1>         0.0584 
     23 H7          2.1490   -0.3592    1.1611 H         1 <1>         0.0584 
     24 H8          1.3274   -0.1768   -0.4108 H         1 <1>         0.0584 
     25 H9          0.1786    1.7292    3.6149 H         1 <1>         0.0444 
     26 H10         0.6524    3.3292    4.2516 H         1 <1>         0.0444 
     27 H11         1.6107    2.5801    2.9412 H         1 <1>         0.0444 
@<TRIPOS>BOND
     1    2    1 1    
     2    2    3 ar   
     3    3    4 ar   
     4    4    5 ar   
     5    5    6 ar   
     6    6    7 ar   
     7    2    7 ar   
     8    5    8 ar   
     9    8    9 ar   
    10    9   10 ar   
    11   10   11 ar   
    12    6   11 ar   
    13    9   12 1    
    14   12   13 1    
    15    8   14 1    
    16   14   15 2    
    17   14   16 1    
    18    3   17 1    
    19    4   18 1    
    20    7   19 1    
    21   10   20 1    
    22   11   21 1    
    23   13   22 1    
    24   13   23 1    
    25   13   24 1    
    26   16   25 1    
    27   16   26 1    
    28   16   27 1    
@<TRIPOS>SUBSTRUCTURE
     1 ****        2 TEMP              0 ****  ****    0 ROOT 
@<TRIPOS>NORMAL
@<TRIPOS>FF_PBC
FORCE_FIELD_SETUP_FEATURE Force Field Setup information
v1.0  0 0.000000 0.000000 0.000000 0.000000 0.000000 0.000000 NONE 0 0 0 0 1 0 0 0 0 0 0 0 0
