#	Name:			PISM00733
#	Creating user name:	baoopengkun
#	Creation time:		Fri Jan 25 19:57:57 2019

#	Modifying user name:	baoopengkun
#	Modification time:	Fri Jan 25 19:59:09 2019

@<TRIPOS>MOLECULE
PISM00733
   86    89     1     1     0
SMALL
GAST_HUCK


@<TRIPOS>ATOM
      1 C1          0.0337    9.7892  -11.3610 C.3       1 <1>        -0.0163 
      2 C2         -0.7509    9.2149  -12.5772 C.3       1 <1>         0.0819 
      3 C3         -1.8397    8.2020  -12.1323 C.3       1 <1>         0.0835 
      4 C4         -2.7866    8.8375  -11.0782 C.3       1 <1>        -0.0028 
      5 C5         -1.9477    9.3485   -9.8720 C.3       1 <1>         0.0681 
      6 C6         -0.8813   10.4288  -10.2677 C.3       1 <1>        -0.0055 
      7 C7         -0.0592   10.8710   -8.9899 C.3       1 <1>        -0.0276 
      8 C8          0.2040    9.7141   -7.9690 C.3       1 <1>        -0.0063 
      9 C9         -1.0937    9.3755   -7.1546 C.3       1 <1>         0.0801 
     10 O10        -2.3295   10.0391   -7.5110 O.3       1 <1>        -0.2763 
     11 C11        -2.8081    9.8872   -8.7577 C.2       1 <1>         0.2374 
     12 O12        -3.9599   10.2161   -8.9850 O.2       1 <1>        -0.3701 
     13 C13         1.2666   11.6425   -9.2733 C.3       1 <1>        -0.0487 
     14 C14         1.8331   12.3190   -7.9797 C.3       1 <1>        -0.0468 
     15 C15         1.7212   11.4503   -6.6755 C.3       1 <1>        -0.0257 
     16 C16         1.4995    9.9809   -7.1249 C.3       1 <1>        -0.0298 
     17 C17         1.8029    9.0941   -5.8904 C.3       1 <1>        -0.0491 
     18 C18         2.8407    9.9335   -5.0894 C.3       1 <1>        -0.0491 
     19 C19         3.0509   11.2791   -5.8550 C.3       1 <1>        -0.0304 
     20 O20         0.1531    8.5780  -13.4968 O.3       1 <1>        -0.3892 
     21 O21        -1.1651    7.0520  -11.5844 O.3       1 <1>        -0.3891 
     22 C22         5.3716   12.2997   -0.5990 C.3       1 <1>         0.0686 
     23 C23        -1.5862   11.7062  -10.8484 C.3       1 <1>        -0.0568 
     24 C24         0.5784   11.9702   -5.7439 C.3       1 <1>        -0.0590 
     25 C25         3.5294   12.4452   -4.9175 C.3       1 <1>        -0.0120 
     26 C26         4.8130   12.0357   -4.1109 C.3       1 <1>         0.0842 
     27 C27         5.3669   13.1406   -3.1435 C.3       1 <1>         0.0865 
     28 C28         6.1917   12.5914   -1.9186 C.3       1 <1>         0.0132 
     29 O29         6.2246   11.8354    0.4814 O.3       1 <1>        -0.3768 
     30 C30         4.1959   11.3022   -0.8116 C.3       1 <1>        -0.0358 
     31 C31         4.7800   13.5928    0.0453 C.3       1 <1>        -0.0358 
     32 C32         3.7382   13.7744   -5.7019 C.3       1 <1>        -0.0597 
     33 O33         5.8365   11.4769   -4.9551 O.3       1 <1>        -0.3890 
     34 O34         6.1080   14.1265   -3.8886 O.3       1 <1>        -0.3889 
     35 C35         7.4074   13.5154   -1.5912 C.3       1 <1>        -0.0574 
     36 C36         6.8474   10.5419    0.3398 C.3       1 <1>         0.0371 
     37 H1          0.7428   10.5330  -11.7557 H         1 <1>         0.0298 
     38 H2          0.6195    8.9709  -10.9171 H         1 <1>         0.0298 
     39 H3         -1.2163   10.0269  -13.1566 H         1 <1>         0.0619 
     40 H4         -2.4142    7.8948  -13.0253 H         1 <1>         0.0621 
     41 H5         -3.4948    8.0666  -10.7299 H         1 <1>         0.0319 
     42 H6         -3.3960    9.6315  -11.5315 H         1 <1>         0.0319 
     43 H7         -1.4858    8.4210   -9.5125 H         1 <1>         0.0560 
     44 H8         -0.6748   11.6151   -8.4668 H         1 <1>         0.0311 
     45 H9          0.4803    8.8080   -8.5329 H         1 <1>         0.0332 
     46 H10        -0.9945    9.7195   -6.1199 H         1 <1>         0.0616 
     47 H11        -1.2591    8.2863   -7.0999 H         1 <1>         0.0616 
     48 H12         1.1304   12.4380  -10.0209 H         1 <1>         0.0268 
     49 H13         2.0057   10.9471   -9.7005 H         1 <1>         0.0268 
     50 H14         1.2845   13.2639   -7.8351 H         1 <1>         0.0271 
     51 H15         2.8815   12.5823   -8.1903 H         1 <1>         0.0271 
     52 H16         2.3573    9.7530   -7.7875 H         1 <1>         0.0310 
     53 H17         2.2017    8.1088   -6.1890 H         1 <1>         0.0268 
     54 H18         0.9210    8.9050   -5.2632 H         1 <1>         0.0268 
     55 H19         3.7913    9.3835   -4.9842 H         1 <1>         0.0268 
     56 H20         2.4471   10.1231   -4.0771 H         1 <1>         0.0268 
     57 H21         3.8673   11.1129   -6.5782 H         1 <1>         0.0310 
     58 H22         0.5547    7.8034  -13.1142 H         1 <1>         0.2099 
     59 H23        -1.7586    6.3490  -11.3373 H         1 <1>         0.2099 
     60 H24        -2.1941   11.5251  -11.7400 H         1 <1>         0.0237 
     61 H25        -0.8548   12.4703  -11.1401 H         1 <1>         0.0237 
     62 H26        -2.2591   12.1579  -10.1039 H         1 <1>         0.0237 
     63 H27        -0.3931   12.0047   -6.2483 H         1 <1>         0.0235 
     64 H28         0.7819   12.9985   -5.4171 H         1 <1>         0.0235 
     65 H29         0.4665   11.3523   -4.8428 H         1 <1>         0.0235 
     66 H30         2.7467   12.6325   -4.1643 H         1 <1>         0.0327 
     67 H31         4.5349   11.1837   -3.4831 H         1 <1>         0.0622 
     68 H32         4.5101   13.7033   -2.7547 H         1 <1>         0.0623 
     69 H33         6.6269   11.6425   -2.2657 H         1 <1>         0.0352 
     70 H34         3.7552   11.0356    0.1616 H         1 <1>         0.0257 
     71 H35         3.4035   11.7539   -1.4273 H         1 <1>         0.0257 
     72 H36         4.5321   10.3735   -1.2938 H         1 <1>         0.0257 
     73 H37         4.0334   14.0963   -0.5827 H         1 <1>         0.0257 
     74 H38         5.5710   14.3147    0.2925 H         1 <1>         0.0257 
     75 H39         4.2800   13.3324    0.9917 H         1 <1>         0.0257 
     76 H40         4.0254   14.5981   -5.0344 H         1 <1>         0.0233 
     77 H41         2.8113   14.0977   -6.1893 H         1 <1>         0.0233 
     78 H42         4.5144   13.6633   -6.4723 H         1 <1>         0.0233 
     79 H43         6.1233   12.0631   -5.6454 H         1 <1>         0.2099 
     80 H44         6.8871   13.7799   -4.3076 H         1 <1>         0.2099 
     81 H45         7.8980   13.2232   -0.6507 H         1 <1>         0.0234 
     82 H46         7.0879   14.5648   -1.5050 H         1 <1>         0.0234 
     83 H47         8.1773   13.4590   -2.3760 H         1 <1>         0.0234 
     84 H48         6.1185    9.7202    0.3055 H         1 <1>         0.0524 
     85 H49         7.4535   10.4006    1.2466 H         1 <1>         0.0524 
     86 H50         7.5278   10.4713   -0.5193 H         1 <1>         0.0524 
@<TRIPOS>BOND
     1    1    2 1    
     2    2    3 1    
     3    4    3 1    
     4    5    4 1    
     5    6    5 1    
     6    6    1 1    
     7    7    6 1    
     8    8    7 1    
     9    8    9 1    
    10    9   10 1    
    11   10   11 1    
    12   11   12 2    
    13   11    5 1    
    14   13    7 1    
    15   14   13 1    
    16   15   14 1    
    17   15   16 1    
    18   16    8 1    
    19   16   17 1    
    20   18   17 1    
    21   19   18 1    
    22   19   15 1    
    23    2   20 1    
    24    3   21 1    
    25   28   22 1    
    26    6   23 1    
    27   15   24 1    
    28   25   19 1    
    29   26   25 1    
    30   27   26 1    
    31   27   28 1    
    32   22   29 1    
    33   22   30 1    
    34   22   31 1    
    35   25   32 1    
    36   26   33 1    
    37   27   34 1    
    38   28   35 1    
    39   29   36 1    
    40    1   37 1    
    41    1   38 1    
    42    2   39 1    
    43    3   40 1    
    44    4   41 1    
    45    4   42 1    
    46    5   43 1    
    47    7   44 1    
    48    8   45 1    
    49    9   46 1    
    50    9   47 1    
    51   13   48 1    
    52   13   49 1    
    53   14   50 1    
    54   14   51 1    
    55   16   52 1    
    56   17   53 1    
    57   17   54 1    
    58   18   55 1    
    59   18   56 1    
    60   19   57 1    
    61   20   58 1    
    62   21   59 1    
    63   23   60 1    
    64   23   61 1    
    65   23   62 1    
    66   24   63 1    
    67   24   64 1    
    68   24   65 1    
    69   25   66 1    
    70   26   67 1    
    71   27   68 1    
    72   28   69 1    
    73   30   70 1    
    74   30   71 1    
    75   30   72 1    
    76   31   73 1    
    77   31   74 1    
    78   31   75 1    
    79   32   76 1    
    80   32   77 1    
    81   32   78 1    
    82   33   79 1    
    83   34   80 1    
    84   35   81 1    
    85   35   82 1    
    86   35   83 1    
    87   36   84 1    
    88   36   85 1    
    89   36   86 1    
@<TRIPOS>SUBSTRUCTURE
     1 ****        2 TEMP              0 ****  ****    0 ROOT 
@<TRIPOS>NORMAL
@<TRIPOS>FF_PBC
FORCE_FIELD_SETUP_FEATURE Force Field Setup information
v1.0  0 0.000000 0.000000 0.000000 0.000000 0.000000 0.000000 NONE 0 0 0 0 1 0 0 0 0 0 0 0 0
