#	Name:			PISM01156
#	Creating user name:	baoopengkun
#	Creation time:		Tue Dec 18 15:53:32 2018

#	Modifying user name:	baoopengkun
#	Modification time:	Tue Dec 18 15:56:25 2018

@<TRIPOS>MOLECULE
PISM01156
   26    27     1     1     0
SMALL
GAST_HUCK


@<TRIPOS>ATOM
      1 O1          3.1720    5.3270    4.9877 O.2       1 <1>        -0.3688 
      2 C2          3.7328    5.6080    3.9403 C.2       1 <1>         0.2496 
      3 O3          4.4503    4.7127    3.2608 O.3       1 <1>        -0.2915 
      4 C4          3.6590    6.9842    3.3278 C.3       1 <1>         0.1210 
      5 C5          5.0676    7.5571    3.0692 C.3       1 <1>         0.0311 
      6 S6          4.7381    9.3101    2.7348 S.3       1 <1>        -0.1260 
      7 C7          3.1404    9.3264    3.6136 C.3       1 <1>         0.0890 
      8 N8          3.0283    7.9822    4.2157 N.3       1 <1>        -0.2736 
      9 C9          2.0568    9.7290    2.5969 C.ar      1 <1>         0.0131 
     10 C10         2.2092   10.9355    1.9025 C.ar      1 <1>        -0.0665 
     11 C11         1.2791   11.3252    0.9356 C.ar      1 <1>        -0.0796 
     12 C12         0.1773   10.5115    0.6647 C.ar      1 <1>        -0.0776 
     13 C13         0.0038    9.3199    1.3735 C.ar      1 <1>        -0.0398 
     14 C14         0.9304    8.9320    2.3507 C.ar      1 <1>         0.0916 
     15 O15         0.7407    7.7575    3.0880 O.3       1 <1>        -0.3368 
     16 H16         1.4123   12.2579    0.3959 H         1 <1>         0.0505 
     17 H1          4.4512    3.8715    3.7045 H         1 <1>         0.2540 
     18 H2          3.1091    6.9051    2.3748 H         1 <1>         0.0729 
     19 H3          5.5849    7.0705    2.2279 H         1 <1>         0.0420 
     20 H4          5.6831    7.4858    3.9794 H         1 <1>         0.0420 
     21 H5          3.1734   10.0775    4.4181 H         1 <1>         0.0717 
     22 H6          1.9984    7.7237    4.4302 H         1 <1>         0.1283 
     23 H7          3.0564   11.5812    2.1121 H         1 <1>         0.0527 
     24 H8         -0.5425   10.8053   -0.0935 H         1 <1>         0.0531 
     25 H9         -0.8600    8.7002    1.1559 H         1 <1>         0.0521 
     26 H10        -0.0570    7.2831    2.8786 H         1 <1>         0.2456 
@<TRIPOS>BOND
     1    2    1 2    
     2    2    3 1    
     3    2    4 1    
     4    4    5 1    
     5    5    6 1    
     6    6    7 1    
     7    7    8 1    
     8    4    8 1    
     9    7    9 1    
    10    9   10 ar   
    11   10   11 ar   
    12   11   12 ar   
    13   12   13 ar   
    14   13   14 ar   
    15    9   14 ar   
    16   14   15 1    
    17   11   16 1    
    18    3   17 1    
    19    4   18 1    
    20    5   19 1    
    21    5   20 1    
    22    7   21 1    
    23    8   22 1    
    24   10   23 1    
    25   12   24 1    
    26   13   25 1    
    27   15   26 1    
@<TRIPOS>SUBSTRUCTURE
     1 ****        2 TEMP              0 ****  ****    0 ROOT 
@<TRIPOS>NORMAL
@<TRIPOS>FF_PBC
FORCE_FIELD_SETUP_FEATURE Force Field Setup information
v1.0  0 0.000000 0.000000 0.000000 0.000000 0.000000 0.000000 NONE 0 0 0 0 1 0 0 0 0 0 0 0 0
