#	Name:			PISM00159.1
#	Creating user name:	14062
#	Creation time:		Sun Mar 31 11:09:14 2019

#	Modifying user name:	14062
#	Modification time:	Sun Mar 31 11:29:00 2019

@<TRIPOS>MOLECULE
PISM00159.1
   52    55     1     1     0
SMALL
GAST_HUCK


@<TRIPOS>ATOM
      1 C1         -7.0396    6.7197   -1.5005 C.ar      1 <1>        -0.0627 
      2 C2         -7.2724    8.0898   -1.3790 C.ar      1 <1>        -0.0620 
      3 C3         -6.2785    8.9908   -1.7647 C.ar      1 <1>        -0.0544 
      4 C4         -5.0366    8.5248   -2.2137 C.ar      1 <1>        -0.0149 
      5 C5         -4.7487    7.1510   -2.2183 C.ar      1 <1>        -0.0092 
      6 C6         -5.8039    6.2616   -1.9648 C.ar      1 <1>        -0.0558 
      7 C7         -4.0790    9.4413   -2.6608 C.ar      1 <1>        -0.0460 
      8 C8         -2.8403    8.9863   -3.1137 C.ar      1 <1>        -0.0133 
      9 C9         -2.5168    7.6314   -3.0365 C.ar      1 <1>         0.1170 
     10 C10        -3.4310    6.7267   -2.4714 C.ar      1 <1>         0.0469 
     11 O11        -1.2722    7.2228   -3.5282 O.3       1 <1>        -0.3195 
     12 C12        -2.9450    5.3314   -2.1297 C.2       1 <1>         0.0173 
     13 N13        -1.7083    5.0591   -2.2716 N.2       1 <1>        -0.3023 
     14 C14        -1.1390    3.8676   -1.9867 C.ar      1 <1>         0.0408 
     15 C15        -1.4784    3.1696   -0.8213 C.ar      1 <1>        -0.0427 
     16 C16        -0.9393    1.9047   -0.5724 C.ar      1 <1>        -0.0598 
     17 C17        -0.0386    1.3441   -1.4813 C.ar      1 <1>        -0.0594 
     18 C18         0.3299    2.0557   -2.6262 C.ar      1 <1>        -0.0444 
     19 C19        -0.1850    3.3364   -2.8634 C.ar      1 <1>         0.0624 
     20 C20         0.2721    4.1544   -4.0556 C.2       1 <1>         0.2047 
     21 O21        -0.5349    4.9092   -4.5763 O.2       1 <1>        -0.3871 
     22 N22         1.5408    4.0647   -4.5175 N.am      1 <1>        -0.2730 
     23 C23         1.9569    4.8123   -5.7059 C.3       1 <1>         0.0721 
     24 C24         1.7906    3.9782   -6.9882 C.ar      1 <1>        -0.0183 
     25 C25         1.5348    2.6014   -6.9464 C.ar      1 <1>        -0.0582 
     26 C26         1.4139    1.8656   -8.1293 C.ar      1 <1>        -0.0685 
     27 C27         1.5490    2.4985   -9.3670 C.ar      1 <1>        -0.0687 
     28 C28         1.7937    3.8727   -9.4172 C.ar      1 <1>        -0.0685 
     29 C29         1.8999    4.6083   -8.2338 C.ar      1 <1>        -0.0582 
     30 C30         3.4379    5.2479   -5.5573 C.3       1 <1>        -0.0320 
     31 H1         -7.8214    6.0126   -1.2368 H         1 <1>         0.0627 
     32 H2         -8.2208    8.4508   -0.9921 H         1 <1>         0.0595 
     33 H3         -6.4846   10.0559   -1.7102 H         1 <1>         0.0637 
     34 H4         -5.7053    5.1970   -2.1314 H         1 <1>         0.0598 
     35 H5         -4.2868   10.5061   -2.6659 H         1 <1>         0.0707 
     36 H6         -2.1189    9.6848   -3.5260 H         1 <1>         0.0617 
     37 H7         -1.1951    6.2798   -3.6706 H         1 <1>         0.2563 
     38 H8         -3.6139    4.5584   -1.7601 H         1 <1>         0.1032 
     39 H9         -2.1563    3.6088   -0.0971 H         1 <1>         0.0613 
     40 H10        -1.2182    1.3601    0.3247 H         1 <1>         0.0643 
     41 H11         0.3729    0.3566   -1.2968 H         1 <1>         0.0602 
     42 H12         1.0125    1.5949   -3.3311 H         1 <1>         0.0661 
     43 H13         2.2174    3.4840   -4.0670 H         1 <1>         0.1872 
     44 H14         1.3576    5.7337   -5.8146 H         1 <1>         0.0716 
     45 H15         1.4262    2.0841   -5.9999 H         1 <1>         0.0557 
     46 H16         1.2137    0.7990   -8.0870 H         1 <1>         0.0599 
     47 H17         1.4641    1.9259  -10.2852 H         1 <1>         0.0559 
     48 H18         1.8998    4.3691  -10.3766 H         1 <1>         0.0599 
     49 H19         2.0686    5.6784   -8.2894 H         1 <1>         0.0557 
     50 H20         4.0983    4.3674   -5.5483 H         1 <1>         0.0274 
     51 H21         3.5659    5.7978   -4.6120 H         1 <1>         0.0274 
     52 H22         3.7430    5.9005   -6.3889 H         1 <1>         0.0274 
@<TRIPOS>BOND
     1    2    1 ar   
     2    2    3 ar   
     3    3    4 ar   
     4    4    5 ar   
     5    5    6 ar   
     6    1    6 ar   
     7    4    7 ar   
     8    7    8 ar   
     9    8    9 ar   
    10    9   10 ar   
    11    5   10 ar   
    12    9   11 1    
    13   10   12 1    
    14   12   13 2    
    15   13   14 1    
    16   14   15 ar   
    17   15   16 ar   
    18   16   17 ar   
    19   17   18 ar   
    20   18   19 ar   
    21   14   19 ar   
    22   19   20 1    
    23   20   21 2    
    24   20   22 am   
    25   22   23 1    
    26   23   24 1    
    27   24   25 ar   
    28   25   26 ar   
    29   26   27 ar   
    30   27   28 ar   
    31   28   29 ar   
    32   24   29 ar   
    33   23   30 1    
    34    1   31 1    
    35    2   32 1    
    36    3   33 1    
    37    6   34 1    
    38    7   35 1    
    39    8   36 1    
    40   11   37 1    
    41   12   38 1    
    42   15   39 1    
    43   16   40 1    
    44   17   41 1    
    45   18   42 1    
    46   22   43 1    
    47   23   44 1    
    48   25   45 1    
    49   26   46 1    
    50   27   47 1    
    51   28   48 1    
    52   29   49 1    
    53   30   50 1    
    54   30   51 1    
    55   30   52 1    
@<TRIPOS>SUBSTRUCTURE
     1 ****        2 TEMP              0 ****  ****    0 ROOT 
@<TRIPOS>NORMAL
@<TRIPOS>FF_PBC
FORCE_FIELD_SETUP_FEATURE Force Field Setup information
v1.0  0 0.000000 0.000000 0.000000 0.000000 0.000000 0.000000 NONE 0 0 0 0 1 0 0 0 0 0 0 0 0
