#	Name:			PISM00058
#	Creating user name:	baoopengkun
#	Creation time:		Thu Dec 27 12:39:08 2018

#	Modifying user name:	baoopengkun
#	Modification time:	Thu Dec 27 16:19:58 2018

@<TRIPOS>MOLECULE
PISM00058
   26    27     1     1     0
SMALL
GAST_HUCK


@<TRIPOS>ATOM
      1 O1          0.8527   -0.2119  -11.6833 O.3       1 <1>        -0.2954 
      2 C2          0.1060    0.8340  -11.3196 C.2       1 <1>         0.2532 
      3 O3         -0.6692    0.7346  -10.3814 O.2       1 <1>        -0.3644 
      4 C4          0.2260    2.1449  -12.0677 C.ar      1 <1>         0.0831 
      5 C5          1.0222    2.2291  -13.2174 C.ar      1 <1>         0.0832 
      6 C6          1.2115    3.4698  -13.8379 C.ar      1 <1>        -0.0334 
      7 C7          0.5232    4.5987  -13.3861 C.ar      1 <1>        -0.0674 
      8 C8         -0.3238    4.4994  -12.2797 C.ar      1 <1>        -0.0678 
      9 C9         -0.4600    3.2777  -11.6148 C.ar      1 <1>        -0.0506 
     10 N10         1.6104    1.1170  -13.7212 N.pl3     1 <1>        -0.2335 
     11 C11         1.5344    0.7756  -14.9804 C.2       1 <1>         0.2585 
     12 O12         2.1375   -0.2121  -15.3679 O.2       1 <1>        -0.3692 
     13 C13         0.7387    1.5171  -15.9871 C.2       1 <1>         0.1938 
     14 O14         1.2288    1.7141  -17.2185 O.3       1 <1>        -0.2418 
     15 C15         0.2348    2.4012  -17.7871 C.2       1 <1>         0.1579 
     16 C16        -0.8324    2.6469  -17.0267 C.2       1 <1>        -0.0443 
     17 C17        -0.4791    2.0173  -15.7577 C.2       1 <1>        -0.0374 
     18 Br18        0.3319    2.9976  -19.5775 Br        1 <1>        -0.0086 
     19 H1          0.6776   -0.9719  -11.1378 H         1 <1>         0.2519 
     20 H2          1.8983    3.5634  -14.6733 H         1 <1>         0.0543 
     21 H3          0.6474    5.5514  -13.8925 H         1 <1>         0.0624 
     22 H4         -0.8729    5.3708  -11.9353 H         1 <1>         0.0529 
     23 H5         -1.1026    3.2139  -10.7421 H         1 <1>         0.0640 
     24 H6          2.1356    0.5008  -13.0794 H         1 <1>         0.2120 
     25 H7         -1.7446    3.1834  -17.2846 H         1 <1>         0.0415 
     26 H8         -1.0872    1.9761  -14.8549 H         1 <1>         0.0451 
@<TRIPOS>BOND
     1    2    1 1    
     2    2    3 2    
     3    2    4 1    
     4    4    5 ar   
     5    5    6 ar   
     6    6    7 ar   
     7    7    8 ar   
     8    8    9 ar   
     9    4    9 ar   
    10    5   10 1    
    11   10   11 1    
    12   11   12 2    
    13   11   13 1    
    14   13   14 1    
    15   14   15 1    
    16   15   16 2    
    17   16   17 1    
    18   13   17 2    
    19   15   18 1    
    20    1   19 1    
    21    6   20 1    
    22    7   21 1    
    23    8   22 1    
    24    9   23 1    
    25   10   24 1    
    26   16   25 1    
    27   17   26 1    
@<TRIPOS>SUBSTRUCTURE
     1 ****        2 TEMP              0 ****  ****    0 ROOT 
@<TRIPOS>NORMAL
@<TRIPOS>FF_PBC
FORCE_FIELD_SETUP_FEATURE Force Field Setup information
v1.0  0 0.000000 0.000000 0.000000 0.000000 0.000000 0.000000 NONE 0 0 0 0 1 0 0 0 0 0 0 0 0
