#	Name:			PISM00338
#	Creating user name:	baoopengkun
#	Creation time:		Sun Mar 31 18:46:55 2019

#	Modifying user name:	baoopengkun
#	Modification time:	Sun Mar 31 18:49:42 2019

@<TRIPOS>MOLECULE
PISM00338
   55    55     1     1     0
SMALL
GAST_HUCK


@<TRIPOS>ATOM
      1 C1         -0.2250   -0.2177   -9.7617 C.3       1 <1>        -0.0486 
      2 C2         -0.8124   -1.3466   -8.8646 C.3       1 <1>         0.0225 
      3 C3         -0.2895   -1.2098   -7.4637 C.2       1 <1>         0.1783 
      4 C4          0.0868    0.1050   -6.9137 C.2       1 <1>         0.1080 
      5 C5          0.0026    1.2266   -7.6459 C.2       1 <1>        -0.0545 
      6 C6         -0.4615    1.1809   -9.0878 C.3       1 <1>         0.0241 
      7 C7          1.2976   -0.5082   -9.9646 C.3       1 <1>        -0.0722 
      8 C8         -0.9199   -0.2591  -11.1543 C.3       1 <1>        -0.0722 
      9 O9         -0.1720   -2.2098   -6.7733 O.2       1 <1>        -0.3530 
     10 S10         0.6687    0.1359   -5.2243 S.3       1 <1>        -0.0484 
     11 C11         0.3436    2.6020   -7.1063 C.3       1 <1>        -0.0414 
     12 C12        -1.9300    1.5476   -9.0118 C.2       1 <1>        -0.0993 
     13 C13        -2.4458    2.6975   -9.4688 C.2       1 <1>        -0.0245 
     14 C14        -3.8902    2.9985   -9.3839 C.2       1 <1>         0.0167 
     15 C15        -4.8613    1.9540   -9.8869 C.3       1 <1>        -0.0145 
     16 C16        -4.3543    4.1563   -8.8876 C.2       1 <1>         0.0580 
     17 C17        -3.5340    5.2611   -8.3342 C.2       1 <1>         0.2688 
     18 O18        -2.3288    5.1411   -8.2045 O.2       1 <1>        -0.3498 
     19 O19        -4.0802    6.4201   -7.9508 O.3       1 <1>        -0.2928 
     20 O20         0.1950    2.2147   -9.8446 O.3       1 <1>        -0.4725 
     21 C21         2.4335    0.0600   -5.6699 C.3       1 <1>         0.0189 
     22 C22         3.2810    0.2604   -4.3884 C.3       1 <1>        -0.0402 
     23 C23         4.7993    0.2329   -4.7121 C.3       1 <1>        -0.0523 
     24 C24         5.6546    0.4426   -3.4330 C.3       1 <1>        -0.0559 
     25 C25         7.1701    0.4305   -3.7640 C.3       1 <1>        -0.0653 
     26 H1         -0.5245   -2.3328   -9.2607 H         1 <1>         0.0479 
     27 H2         -1.9097   -1.3331   -8.8224 H         1 <1>         0.0479 
     28 H3          1.4594   -1.5416  -10.3079 H         1 <1>         0.0220 
     29 H4          1.8556   -0.3722   -9.0262 H         1 <1>         0.0220 
     30 H5          1.7400    0.1451  -10.7305 H         1 <1>         0.0220 
     31 H6         -0.5449    0.5563  -11.7916 H         1 <1>         0.0220 
     32 H7         -2.0103   -0.1476  -11.0623 H         1 <1>         0.0220 
     33 H8         -0.7173   -1.2157  -11.6597 H         1 <1>         0.0220 
     34 H9          0.3552    2.6575   -6.0094 H         1 <1>         0.0386 
     35 H10        -0.4001    3.3329   -7.4571 H         1 <1>         0.0386 
     36 H11         1.3321    2.9104   -7.4750 H         1 <1>         0.0386 
     37 H12        -2.6201    0.8508   -8.5405 H         1 <1>         0.0493 
     38 H13        -1.8060    3.4536   -9.9232 H         1 <1>         0.1042 
     39 H14        -5.6358    2.4124  -10.5205 H         1 <1>         0.0429 
     40 H15        -5.3446    1.4590   -9.0313 H         1 <1>         0.0429 
     41 H16        -4.3448    1.1905  -10.4890 H         1 <1>         0.0429 
     42 H17        -5.4349    4.2971   -8.8793 H         1 <1>         0.0917 
     43 H18        -5.0197    6.4818   -8.0637 H         1 <1>         0.2516 
     44 H19         1.1434    2.1727   -9.8294 H         1 <1>         0.1785 
     45 H20         2.6624    0.8522   -6.3996 H         1 <1>         0.0422 
     46 H21         2.6408   -0.9196   -6.1285 H         1 <1>         0.0422 
     47 H22         3.0404   -0.5364   -3.6651 H         1 <1>         0.0276 
     48 H23         3.0203    1.2313   -3.9351 H         1 <1>         0.0276 
     49 H24         5.0313    1.0300   -5.4378 H         1 <1>         0.0266 
     50 H25         5.0579   -0.7368   -5.1691 H         1 <1>         0.0266 
     51 H26         5.4370   -0.3586   -2.7069 H         1 <1>         0.0263 
     52 H27         5.3954    1.4091   -2.9688 H         1 <1>         0.0263 
     53 H28         7.4584   -0.5353   -4.2073 H         1 <1>         0.0230 
     54 H29         7.7606    0.5854   -2.8471 H         1 <1>         0.0230 
     55 H30         7.4143    1.2337   -4.4770 H         1 <1>         0.0230 
@<TRIPOS>BOND
     1    2    1 1    
     2    2    3 1    
     3    3    4 1    
     4    4    5 2    
     5    5    6 1    
     6    1    6 1    
     7    1    7 1    
     8    1    8 1    
     9    3    9 2    
    10    4   10 1    
    11    5   11 1    
    12    6   12 1    
    13   12   13 2    
    14   13   14 1    
    15   14   15 1    
    16   14   16 2    
    17   16   17 1    
    18   17   18 2    
    19   17   19 1    
    20    6   20 1    
    21   10   21 1    
    22   21   22 1    
    23   22   23 1    
    24   23   24 1    
    25   24   25 1    
    26    2   26 1    
    27    2   27 1    
    28    7   28 1    
    29    7   29 1    
    30    7   30 1    
    31    8   31 1    
    32    8   32 1    
    33    8   33 1    
    34   11   34 1    
    35   11   35 1    
    36   11   36 1    
    37   12   37 1    
    38   13   38 1    
    39   15   39 1    
    40   15   40 1    
    41   15   41 1    
    42   16   42 1    
    43   19   43 1    
    44   20   44 1    
    45   21   45 1    
    46   21   46 1    
    47   22   47 1    
    48   22   48 1    
    49   23   49 1    
    50   23   50 1    
    51   24   51 1    
    52   24   52 1    
    53   25   53 1    
    54   25   54 1    
    55   25   55 1    
@<TRIPOS>SUBSTRUCTURE
     1 ****        2 TEMP              0 ****  ****    0 ROOT 
@<TRIPOS>NORMAL
@<TRIPOS>FF_PBC
FORCE_FIELD_SETUP_FEATURE Force Field Setup information
v1.0  0 0.000000 0.000000 0.000000 0.000000 0.000000 0.000000 NONE 0 0 0 0 1 0 0 0 0 0 0 0 0
