#	Name:			PISM00034
#	Creating user name:	baoopengkun
#	Creation time:		Sat Nov 17 17:54:16 2018

#	Modifying user name:	baoopengkun
#	Modification time:	Sat Nov 17 18:00:05 2018

@<TRIPOS>MOLECULE
PISM00034
   32    33     1     2     0
SMALL
GAST_HUCK


@<TRIPOS>ATOM
      1 O1         -3.1215   -8.0920    9.3496 O.2       1 <1>        -0.3492 
      2 C2         -2.5662   -7.0159    9.2106 C.2       1 <1>         0.2576 
      3 C3         -1.3977   -6.5902    9.9923 C.2       1 <1>         0.0412 
      4 C4         -1.0936   -5.3629    9.5613 C.2       1 <1>         0.0412 
      5 C5         -2.0756   -5.0462    8.5157 C.2       1 <1>         0.2576 
      6 N6         -2.8793   -6.0594    8.3884 N.pl3     1 <1>        -0.1357 
      7 C7         -3.9123   -6.1116    7.5118 C.ar      1 <1>         0.0971 
      8 C8         -4.1264   -7.2573    6.7372 C.ar      1 <1>        -0.0107 
      9 C9         -5.1980   -7.3224    5.8402 C.ar      1 <1>         0.0587 
     10 C10        -6.0510   -6.2216    5.7074 C.ar      1 <1>        -0.0306 
     11 C11        -5.8420   -5.0649    6.4661 C.ar      1 <1>         0.0587 
     12 C12        -4.7768   -5.0202    7.3718 C.ar      1 <1>        -0.0107 
     13 O13        -2.0916   -3.9984    7.8929 O.2       1 <1>        -0.3492 
     14 C14        -5.4321   -8.5720    5.0175 C.2       1 <1>         0.2615 
     15 O15        -6.4844   -8.6256    4.1864 O.3       1 <1>        -0.2809 
     16 C16        -6.5975   -9.8658    3.4603 C.3       1 <1>         0.0647 
     17 O17        -4.6588   -9.5116    5.1230 O.2       1 <1>        -0.3568 
     18 H5         -7.4878   -9.8009    2.8178 H         1 <1>         0.0575 
     19 H1         -0.8942   -7.1702   10.7643 H         1 <1>         0.0816 
     20 H2         -0.2866   -4.7168    9.9033 H         1 <1>         0.0816 
     21 H3         -3.4513   -8.1016    6.8278 H         1 <1>         0.0628 
     22 H4         -6.8814   -6.2642    5.0101 H         1 <1>         0.0632 
     23 C23        -6.7598   -3.8703    6.3128 C.2       1 <1>         0.2615 
     24 H6         -4.6243   -4.1330    7.9766 H         1 <1>         0.0628 
     25 H7         -6.7240  -10.7204    4.1442 H         1 <1>         0.0575 
     26 H8         -5.7176  -10.0355    2.8191 H         1 <1>         0.0575 
     27 H9         -7.2047   -0.8646    7.4714 H         1 <1>         0.0575 
     28 H10        -8.5072   -2.0123    7.0532 H         1 <1>         0.0575 
     29 H11        -7.4283   -1.3584    5.7700 H         1 <1>         0.0575 
     30 O30        -6.5410   -2.7743    7.0557 O.3       1 <1>        -0.2809 
     31 C31        -7.4765   -1.7043    6.8151 C.3       1 <1>         0.0647 
     32 O32        -7.6843   -3.9227    5.5162 O.2       1 <1>        -0.3568 
@<TRIPOS>BOND
     1    2    1 2    
     2    2    3 1    
     3    3    4 2    
     4    4    5 1    
     5    5    6 1    
     6    2    6 1    
     7    6    7 1    
     8    7    8 ar   
     9    8    9 ar   
    10    9   10 ar   
    11   10   11 ar   
    12   11   12 ar   
    13    7   12 ar   
    14    5   13 2    
    15    9   14 1    
    16   14   15 1    
    17   15   16 1    
    18   14   17 2    
    19   16   18 1    
    20    3   19 1    
    21    4   20 1    
    22    8   21 1    
    23   10   22 1    
    24   11   23 1    
    25   12   24 1    
    26   16   25 1    
    27   16   26 1    
    28   31   27 1    
    29   31   28 1    
    30   31   29 1    
    31   23   30 1    
    32   30   31 1    
    33   23   32 2    
@<TRIPOS>SUBSTRUCTURE
     1 ****        2 TEMP              0 ****  ****    0 ROOT 
@<TRIPOS>NORMAL
@<TRIPOS>FF_PBC
FORCE_FIELD_SETUP_FEATURE Force Field Setup information
v1.0  0 0.000000 0.000000 0.000000 0.000000 0.000000 0.000000 NONE 0 0 0 0 1 0 0 0 0 0 0 0 0
@<TRIPOS>RENDERING_ATTRS
ANTIALIASED_LINES 
*
