#	Name:			PISM01195
#	Creating user name:	14062
#	Creation time:		Sat Apr 06 23:55:46 2019

#	Modifying user name:	14062
#	Modification time:	Sat Apr 06 23:56:44 2019

@<TRIPOS>MOLECULE
PISM01195
   17    17     1     1     0
SMALL
GAST_HUCK


@<TRIPOS>ATOM
      1 O1         -9.3275   17.0182   -6.9739 O.3       1 BENZYL     -0.2935 
      2 C1         -8.3258   16.1380   -6.8999 C.2       1 BENZYL      0.2576 
      3 C2         -7.6278   15.5309   -8.1033 C.ar      1 BENZYL      0.0501 
      4 C3         -8.2612   15.3931   -9.3447 C.ar      1 BENZYL     -0.0539 
      5 C4         -7.5596   14.8829  -10.4402 C.ar      1 BENZYL     -0.0677 
      6 C5         -6.2330   14.4691  -10.2942 C.ar      1 BENZYL     -0.0401 
      7 C6         -5.5995   14.5575   -9.0494 C.ar      1 BENZYL      0.0410 
      8 C7         -6.3071   15.0875   -7.9634 C.ar      1 BENZYL     -0.0237 
      9 O9         -7.9542   15.8192   -5.7834 O.2       1 BENZYL     -0.3570 
     10 N10        -4.3184   14.1373   -8.8991 N.pl3     1 BENZYL     -0.3362 
     11 H1         -9.5223   17.3118   -7.8529 H         1 BENZYL      0.2523 
     12 H2         -9.3021   15.6672   -9.4755 H         1 BENZYL      0.0560 
     13 H3         -8.0470   14.8047  -11.4077 H         1 BENZYL      0.0595 
     14 H4         -5.7003   14.0777  -11.1548 H         1 BENZYL      0.0552 
     15 H5         -5.8229   15.1601   -6.9950 H         1 BENZYL      0.0567 
     16 H6         -3.7972   13.7444   -9.6972 H         1 BENZYL      0.1718 
     17 H7         -3.8468   14.2038   -7.9845 H         1 BENZYL      0.1718 
@<TRIPOS>BOND
     1    2    3 1    
     2    3    4 ar   
     3    3    8 ar   
     4    8    7 ar   
     5    7    6 ar   
     6    6    5 ar   
     7    5    4 ar   
     8    2    1 1    
     9    2    9 2    
    10    7   10 1    
    11    1   11 1    
    12    4   12 1    
    13    5   13 1    
    14    6   14 1    
    15    8   15 1    
    16   10   16 1    
    17   10   17 1    
@<TRIPOS>SUBSTRUCTURE
     1 BENZYL      2 PERM              0 ****  ****    0 ROOT 
@<TRIPOS>NORMAL
@<TRIPOS>FF_PBC
FORCE_FIELD_SETUP_FEATURE Force Field Setup information
v1.0  0 0.000000 0.000000 0.000000 0.000000 0.000000 0.000000 NONE 0 0 0 0 1 0 0 0 0 0 0 0 0
