#	Name:			PISM01067
#	Creating user name:	Qinrunwen
#	Creation time:		Sun Mar 31 14:45:28 2019

#	Modifying user name:	Qinrunwen
#	Modification time:	Sun Mar 31 14:47:46 2019

@<TRIPOS>MOLECULE
PISM01067
   15    14     1     1     0
SMALL
GAST_HUCK


@<TRIPOS>ATOM
      1 O1         15.1761   -9.7379  -17.2447 O.2       1 <1>        -0.2955 
      2 N2         16.3936   -9.8000  -17.2163 N.2       1 <1>         0.0613 
      3 N3         17.0918  -10.8660  -17.8912 N.am      1 <1>        -0.0649 
      4 C4         16.3745  -11.8613  -18.6836 C.3       1 <1>         0.0899 
      5 C5         16.0364  -13.0744  -17.7836 C.3       1 <1>        -0.0344 
      6 C6         18.4288  -10.9666  -17.7320 C.2       1 <1>         0.3282 
      7 N7         19.0589  -10.0489  -16.9769 N.am      1 <1>        -0.2760 
      8 O8         19.0694  -11.8645  -18.2522 O.2       1 <1>        -0.3795 
      9 H1         16.9701  -12.1891  -19.5522 H         1 <1>         0.0644 
     10 H2         15.4417  -11.4244  -19.0748 H         1 <1>         0.0644 
     11 H3         15.4741  -13.8314  -18.3528 H         1 <1>         0.0258 
     12 H4         15.4258  -12.7464  -16.9279 H         1 <1>         0.0258 
     13 H5         16.9621  -13.5327  -17.4022 H         1 <1>         0.0258 
     14 H6         18.5423   -9.3104  -16.5453 H         1 <1>         0.1824 
     15 H7         20.0485  -10.1130  -16.8514 H         1 <1>         0.1824 
@<TRIPOS>BOND
     1    2    1 2    
     2    2    3 1    
     3    3    4 1    
     4    4    5 1    
     5    3    6 am   
     6    6    7 am   
     7    6    8 2    
     8    4    9 1    
     9    4   10 1    
    10    5   11 1    
    11    5   12 1    
    12    5   13 1    
    13    7   14 1    
    14    7   15 1    
@<TRIPOS>SUBSTRUCTURE
     1 ****        2 TEMP              0 ****  ****    0 ROOT 
@<TRIPOS>NORMAL
@<TRIPOS>FF_PBC
FORCE_FIELD_SETUP_FEATURE Force Field Setup information
v1.0  0 0.000000 0.000000 0.000000 0.000000 0.000000 0.000000 NONE 0 0 0 0 1 0 0 0 0 0 0 0 0
