#	Name:			PISM00751
#	Creating user name:	baoopengkun
#	Creation time:		Wed Jan 02 11:45:08 2019

#	Modifying user name:	baoopengkun
#	Modification time:	Wed Jan 02 11:50:04 2019

@<TRIPOS>MOLECULE
PISM00751
   50    51     1     1     0
SMALL
GAST_HUCK


@<TRIPOS>ATOM
      1 C1          8.3568    8.4914    5.7101 C.3       1 <1>        -0.0531 
      2 C2          7.4387    7.2546    5.9647 C.3       1 <1>         0.0043 
      3 C3          6.8076    7.4058    7.3813 C.3       1 <1>        -0.0531 
      4 C4          6.3115    7.2112    4.8945 C.3       1 <1>         0.0221 
      5 C5          6.8877    6.9326    3.5349 C.2       1 <1>         0.0883 
      6 O6          6.2949    7.3161    2.5400 O.2       1 <1>        -0.4091 
      7 C7          8.1575    6.2018    3.3914 C.2       1 <1>        -0.0281 
      8 C8          8.8151    5.7319    4.4600 C.2       1 <1>        -0.0326 
      9 C9         10.1060    4.9547    4.3368 C.3       1 <1>        -0.0170 
     10 C10         8.2828    5.9445    5.8631 C.3       1 <1>         0.0303 
     11 C11         7.5355    4.7135    6.3369 C.2       1 <1>        -0.0752 
     12 C12         6.9118    3.8441    5.5281 C.2       1 <1>        -0.0764 
     13 C13         6.2136    2.6296    6.0114 C.2       1 <1>         0.0630 
     14 C14         5.9583    2.4378    7.4540 C.2       1 <1>         0.2381 
     15 O15         6.6705    1.6705    8.0780 O.2       1 <1>        -0.3755 
     16 O16         4.9632    3.0700    8.0969 O.3       1 <1>        -0.2861 
     17 C17         4.0940    3.8649    7.2672 C.3       1 <1>         0.0639 
     18 C18         5.8047    1.6697    5.1714 C.2       1 <1>         0.0954 
     19 O19         6.0158    1.8024    3.8529 O.3       1 <1>        -0.2571 
     20 C20         5.5239    0.7001    3.0734 C.3       1 <1>         0.2436 
     21 C21         5.9785    0.9069    1.6496 C.2       1 <1>         0.0001 
     22 C22         6.8098   -0.0646    1.2784 C.2       1 <1>         0.0293 
     23 C23         7.4978   -0.2439   -0.0474 C.3       1 <1>        -0.0323 
     24 C24         6.8864   -0.9175    2.4593 C.2       1 <1>         0.2496 
     25 O25         7.5686   -1.9266    2.4981 O.2       1 <1>        -0.3691 
     26 O26         6.1549   -0.5261    3.4953 O.3       1 <1>        -0.2296 
     27 H1          8.8406    8.4488    4.7234 H         1 <1>         0.0240 
     28 H2          9.1486    8.5489    6.4727 H         1 <1>         0.0240 
     29 H3          7.7737    9.4238    5.7573 H         1 <1>         0.0240 
     30 H4          6.0931    6.5988    7.5965 H         1 <1>         0.0240 
     31 H5          6.2646    8.3601    7.4604 H         1 <1>         0.0240 
     32 H6          7.5905    7.3886    8.1550 H         1 <1>         0.0240 
     33 H7          5.7778    8.1741    4.8734 H         1 <1>         0.0481 
     34 H8          5.5798    6.4198    5.1110 H         1 <1>         0.0481 
     35 H9          8.5405    6.0507    2.3824 H         1 <1>         0.0278 
     36 H10        10.3828    4.7660    3.2885 H         1 <1>         0.0471 
     37 H11         9.9975    3.9834    4.8429 H         1 <1>         0.0471 
     38 H12        10.9243    5.5152    4.8133 H         1 <1>         0.0471 
     39 H13         9.1505    6.0640    6.5328 H         1 <1>         0.0692 
     40 H14         7.5180    4.5324    7.4128 H         1 <1>         0.0535 
     41 H15         6.9127    4.0194    4.4534 H         1 <1>         0.0411 
     42 H16         4.6266    4.6942    6.7808 H         1 <1>         0.0574 
     43 H17         3.3231    4.2960    7.9228 H         1 <1>         0.0574 
     44 H18         3.5905    3.2501    6.5045 H         1 <1>         0.0574 
     45 H19         5.3076    0.7947    5.6004 H         1 <1>         0.1235 
     46 H20         4.4252    0.6112    3.1195 H         1 <1>         0.1223 
     47 H21         5.6721    1.7411    1.0195 H         1 <1>         0.0707 
     48 H22         8.2733    0.5271   -0.1666 H         1 <1>         0.0347 
     49 H23         6.7676   -0.1515   -0.8653 H         1 <1>         0.0347 
     50 H24         7.9694   -1.2367   -0.1014 H         1 <1>         0.0347 
@<TRIPOS>BOND
     1    2    1 1    
     2    2    3 1    
     3    2    4 1    
     4    4    5 1    
     5    5    6 2    
     6    5    7 1    
     7    7    8 2    
     8    8    9 1    
     9    8   10 1    
    10    2   10 1    
    11   10   11 1    
    12   11   12 2    
    13   12   13 1    
    14   13   14 1    
    15   14   15 2    
    16   14   16 1    
    17   16   17 1    
    18   13   18 2    
    19   18   19 1    
    20   19   20 1    
    21   20   21 1    
    22   21   22 2    
    23   22   23 1    
    24   22   24 1    
    25   24   25 2    
    26   24   26 1    
    27   20   26 1    
    28    1   27 1    
    29    1   28 1    
    30    1   29 1    
    31    3   30 1    
    32    3   31 1    
    33    3   32 1    
    34    4   33 1    
    35    4   34 1    
    36    7   35 1    
    37    9   36 1    
    38    9   37 1    
    39    9   38 1    
    40   10   39 1    
    41   11   40 1    
    42   12   41 1    
    43   17   42 1    
    44   17   43 1    
    45   17   44 1    
    46   18   45 1    
    47   20   46 1    
    48   21   47 1    
    49   23   48 1    
    50   23   49 1    
    51   23   50 1    
@<TRIPOS>SUBSTRUCTURE
     1 ****        2 TEMP              0 ****  ****    0 ROOT 
@<TRIPOS>NORMAL
@<TRIPOS>FF_PBC
FORCE_FIELD_SETUP_FEATURE Force Field Setup information
v1.0  0 0.000000 0.000000 0.000000 0.000000 0.000000 0.000000 NONE 0 0 0 0 1 0 0 0 0 0 0 0 0
