#	Name:			PISM00990
#	Creating user name:	baoopengkun
#	Creation time:		Fri Jan 11 22:05:04 2019

#	Modifying user name:	baoopengkun
#	Modification time:	Fri Jan 11 22:30:19 2019

@<TRIPOS>MOLECULE
PISM00990
   38    40     1     1     0
SMALL
GAST_HUCK


@<TRIPOS>ATOM
      1 C1         12.6028    8.1810  -14.7737 C.3       1 <1>        -0.0390 
      2 H1         12.3615    7.5862  -15.6675 H         1 <1>         0.0359 
      3 C3         12.5777    2.1080   -1.7958 C.2       1 <1>         0.0412 
      4 C4         13.8189    2.5212   -2.0665 C.2       1 <1>         0.0412 
      5 H2         13.5904    8.6444  -14.9172 H         1 <1>         0.0359 
      6 H3         11.8527    8.9777  -14.6582 H         1 <1>         0.0359 
      7 C7         11.8008    2.3261   -3.0234 C.2       1 <1>         0.2576 
      8 O8         10.6148    2.0652   -3.1315 O.2       1 <1>        -0.3492 
      9 N9         12.5907    2.8350   -3.9211 N.pl3     1 <1>        -0.1377 
     10 C10        13.7957    2.9882   -3.4592 C.2       1 <1>         0.2576 
     11 O11        14.7702    3.4301   -4.0434 O.2       1 <1>        -0.3492 
     12 C12        12.2081    3.1633   -5.1795 C.ar      1 <1>         0.0861 
     13 C13        11.4252    2.2832   -5.9358 C.ar      1 <1>        -0.0343 
     14 C14        11.0403    2.6166   -7.2378 C.ar      1 <1>        -0.0441 
     15 C15        11.4469    3.8288   -7.8020 C.ar      1 <1>         0.1023 
     16 C16        12.2091    4.7209   -7.0429 C.ar      1 <1>        -0.0441 
     17 C17        12.5912    4.3876   -5.7403 C.ar      1 <1>        -0.0343 
     18 S18        10.9712    4.2570   -9.4615 S.o2      1 <1>         0.0832 
     19 O19        10.5671    3.0535  -10.1605 O.2       1 <1>        -0.1464 
     20 O20        10.0622    5.3835   -9.3833 O.2       1 <1>        -0.1464 
     21 N21        12.3895    4.7733  -10.1202 N.am      1 <1>        -0.1923 
     22 C22        12.4433    5.6020  -11.2752 C.ar      1 <1>         0.0556 
     23 C23        11.3421    5.7165  -12.1315 C.ar      1 <1>        -0.0516 
     24 C24        11.4021    6.5510  -13.2517 C.ar      1 <1>        -0.0758 
     25 C25        12.5645    7.2741  -13.5377 C.ar      1 <1>        -0.0626 
     26 C26        13.6696    7.1527  -12.6884 C.ar      1 <1>        -0.0758 
     27 C27        13.6100    6.3163  -11.5695 C.ar      1 <1>        -0.0516 
     28 H4         12.2021    1.6932   -0.8617 H         1 <1>         0.0816 
     29 H5         14.6823    2.5188   -1.4031 H         1 <1>         0.0816 
     30 H6         11.1168    1.3303   -5.5186 H         1 <1>         0.0539 
     31 H7         10.4246    1.9318   -7.8117 H         1 <1>         0.0607 
     32 H8         12.5021    5.6766   -7.4663 H         1 <1>         0.0607 
     33 H9         13.1831    5.0914   -5.1639 H         1 <1>         0.0539 
     34 H10        13.2446    4.4627   -9.7054 H         1 <1>         0.2134 
     35 H11        10.4330    5.1570  -11.9426 H         1 <1>         0.0466 
     36 H12        10.5387    6.6359  -13.9043 H         1 <1>         0.0515 
     37 H13        14.5802    7.7076  -12.8908 H         1 <1>         0.0515 
     38 H14        14.4774    6.2270  -10.9243 H         1 <1>         0.0466 
@<TRIPOS>BOND
     1   25    1 1    
     2    1    2 1    
     3    4    3 2    
     4    1    5 1    
     5    1    6 1    
     6    3   28 1    
     7    3    7 1    
     8    7    8 2    
     9    9    7 1    
    10   10    9 1    
    11   10   11 2    
    12    4   10 1    
    13    9   12 1    
    14   12   13 ar   
    15   13   14 ar   
    16   14   15 ar   
    17   16   15 ar   
    18   17   16 ar   
    19   12   17 ar   
    20   15   18 1    
    21   18   19 2    
    22   18   20 2    
    23   18   21 1    
    24   21   22 1    
    25   22   23 ar   
    26   23   24 ar   
    27   24   25 ar   
    28   26   25 ar   
    29   27   26 ar   
    30   22   27 ar   
    31    4   29 1    
    32   13   30 1    
    33   14   31 1    
    34   16   32 1    
    35   17   33 1    
    36   21   34 1    
    37   23   35 1    
    38   24   36 1    
    39   26   37 1    
    40   27   38 1    
@<TRIPOS>SUBSTRUCTURE
     1 ****        4 TEMP              0 ****  ****    0 ROOT 
@<TRIPOS>NORMAL
@<TRIPOS>FF_PBC
FORCE_FIELD_SETUP_FEATURE Force Field Setup information
v1.0  0 0.000000 0.000000 0.000000 0.000000 0.000000 0.000000 NONE 0 0 0 0 1 0 0 0 0 0 0 0 0
