#	Name:			PISM00209
#	Creating user name:	14062
#	Creation time:		Mon Apr 01 20:10:24 2019

#	Modifying user name:	14062
#	Modification time:	Mon Apr 01 20:41:43 2019

@<TRIPOS>MOLECULE
PISM00209
   40    41     1     2     0
SMALL
GAST_HUCK


@<TRIPOS>ATOM
      1 N1          1.5045    2.5220    6.4398 N.pl3     1 <1>        -0.2884 
      2 C2          0.1889    2.6896    6.6783 C.ar      1 <1>         0.0606 
      3 C3         -0.5389    1.8593    5.8476 C.ar      1 <1>        -0.0191 
      4 C4         -1.9323    1.8175    5.8756 C.ar      1 <1>        -0.0746 
      5 C5         -2.5704    2.6640    6.7919 C.ar      1 <1>        -0.0792 
      6 C6         -1.8337    3.5090    7.6374 C.ar      1 <1>        -0.0767 
      7 C7          0.5410    1.1579    5.0635 C.2       1 <1>        -0.0231 
      8 C8          1.7183    1.6329    5.5034 C.2       1 <1>         0.0195 
      9 C9         -0.4333    3.5368    7.5944 C.ar      1 <1>        -0.0442 
     10 C10         0.3134    0.1248    3.9913 C.3       1 <1>         0.0762 
     11 C11        -0.6117   -0.9308    4.5413 C.2       1 <1>         0.2395 
     12 O12        -1.6708   -1.2181    4.0064 O.2       1 <1>        -0.3687 
     13 O13        -0.1973   -1.5352    5.6550 O.3       1 <1>        -0.2917 
     14 C14        -0.2531    0.7985    2.7105 C.3       1 <1>        -0.0277 
     15 C15        -1.0463    4.3818   -0.2590 C.3       1 <1>        -0.0627 
     16 C16         0.3041    2.4541    0.7626 C.3       1 <1>        -0.0505 
     17 C17        -2.2212    2.2015    0.2378 C.3       1 <1>        -0.0627 
     18 H1          2.2500    3.0333    6.9364 H         1 <1>         0.2219 
     19 C19        -1.0885    3.1620    0.7068 C.3       1 <1>        -0.0467 
     20 H2         -2.4934    1.1606    5.2201 H         1 <1>         0.0540 
     21 H3         -3.6546    2.6650    6.8482 H         1 <1>         0.0510 
     22 C22         0.7025    1.8923    2.1605 C.3       1 <1>        -0.0493 
     23 H4         -2.3571    4.1524    8.3381 H         1 <1>         0.0530 
     24 H5          2.6959    1.3226    5.1319 H         1 <1>         0.0804 
     25 H6          0.1450    4.1857    8.2432 H         1 <1>         0.0541 
     26 H7          1.2638   -0.3750    3.7463 H         1 <1>         0.0635 
     27 H8         -0.8334   -2.1770    5.9506 H         1 <1>         0.2540 
     28 H9         -1.2245    1.2514    2.9609 H         1 <1>         0.0307 
     29 H10        -0.4055    0.0239    1.9411 H         1 <1>         0.0307 
     30 H11        -0.3162    5.1294    0.0889 H         1 <1>         0.0232 
     31 H12        -2.0311    4.8717   -0.3129 H         1 <1>         0.0232 
     32 H13        -0.7603    4.0571   -1.2715 H         1 <1>         0.0232 
     33 H14         1.0912    3.1812    0.5007 H         1 <1>         0.0268 
     34 H15         0.3484    1.6515    0.0091 H         1 <1>         0.0268 
     35 H16        -3.1921    2.7211    0.2574 H         1 <1>         0.0232 
     36 H17        -2.3063    1.3109    0.8732 H         1 <1>         0.0232 
     37 H18        -2.0321    1.8649   -0.7932 H         1 <1>         0.0232 
     38 H19        -1.3389    3.5491    1.7097 H         1 <1>         0.0295 
     39 H20         1.7138    1.4596    2.0751 H         1 <1>         0.0268 
     40 H21         0.7551    2.7270    2.8795 H         1 <1>         0.0268 
@<TRIPOS>BOND
     1    8    1 1    
     2    2    1 1    
     3    3    2 ar   
     4    7    3 1    
     5    3    4 ar   
     6    4    5 ar   
     7    5    6 ar   
     8    7    8 2    
     9    9    6 ar   
    10    2    9 ar   
    11    7   10 1    
    12   10   11 1    
    13   11   12 2    
    14   11   13 1    
    15   10   14 1    
    16   19   15 1    
    17   19   17 1    
    18    1   18 1    
    19   22   16 1    
    20    4   20 1    
    21   16   19 1    
    22    5   21 1    
    23   14   22 1    
    24    6   23 1    
    25    8   24 1    
    26    9   25 1    
    27   10   26 1    
    28   13   27 1    
    29   14   28 1    
    30   14   29 1    
    31   15   30 1    
    32   15   31 1    
    33   15   32 1    
    34   16   33 1    
    35   16   34 1    
    36   17   35 1    
    37   17   36 1    
    38   17   37 1    
    39   19   38 1    
    40   22   39 1    
    41   22   40 1    
@<TRIPOS>SUBSTRUCTURE
     1 ****        7 TEMP              0 ****  ****    0 ROOT 
@<TRIPOS>NORMAL
@<TRIPOS>FF_PBC
FORCE_FIELD_SETUP_FEATURE Force Field Setup information
v1.0  0 0.000000 0.000000 0.000000 0.000000 0.000000 0.000000 NONE 0 0 0 0 1 0 0 0 0 0 0 0 0
@<TRIPOS>RENDERING_ATTRS
ANTIALIASED_LINES 
1,2,3,4,5,6,7,8,9,10,11,12,13,14,16,17,19,22
