#	Name:			PISM00801
#	Creating user name:	baoopengkun
#	Creation time:		Sat Dec 15 02:17:04 2018

#	Modifying user name:	baoopengkun
#	Modification time:	Sat Dec 15 02:19:15 2018

@<TRIPOS>MOLECULE
PISM00801
   44    47     1     1     0
SMALL
GAST_HUCK


@<TRIPOS>ATOM
      1 C1         -2.0548   13.5112  -42.9956 C.ar      1 <1>        -0.0676 
      2 C2         -3.1164   12.7474  -42.4939 C.ar      1 <1>        -0.0728 
      3 C3         -3.9058   13.2134  -41.4303 C.ar      1 <1>        -0.0702 
      4 C4         -3.6627   14.4572  -40.8312 C.ar      1 <1>        -0.0343 
      5 C5         -2.6031   15.2145  -41.3327 C.ar      1 <1>         0.0853 
      6 C6         -1.8295   14.7431  -42.3850 C.ar      1 <1>        -0.0186 
      7 C7         -0.8430   15.8642  -42.5724 C.2       1 <1>        -0.0665 
      8 C8         -1.1444   16.7861  -41.6660 C.2       1 <1>         0.1434 
      9 N9         -2.1662   16.4327  -40.9317 N.pl3     1 <1>        -0.2293 
     10 C10        -2.7437   17.2244  -39.8525 C.3       1 <1>         0.0518 
     11 C11         0.3200   16.1581  -43.4827 C.3       1 <1>        -0.0756 
     12 C12        -0.1595   16.2521  -44.9527 C.3       1 <1>        -0.1179 
     13 C13         1.4380   15.1057  -43.2785 C.3       1 <1>        -0.1179 
     14 C14         0.6849   17.5194  -42.9033 C.2       1 <1>         0.0051 
     15 C15        -0.2149   17.9023  -41.7996 C.2       1 <1>         0.1990 
     16 O16        -0.1755   18.9355  -41.1508 O.2       1 <1>        -0.3333 
     17 C17         1.6921   18.2898  -43.3287 C.2       1 <1>         0.1268 
     18 O18         2.4671   17.8735  -44.3408 O.3       1 <1>        -0.2142 
     19 C19         3.4744   18.8163  -44.7430 C.3       1 <1>         0.2582 
     20 C20         2.8719   20.0843  -45.3001 C.2       1 <1>         0.0028 
     21 C21         3.3027   21.1407  -44.6127 C.2       1 <1>         0.0296 
     22 C22         4.1820   20.5599  -43.6031 C.2       1 <1>         0.2498 
     23 O23         4.2905   19.2365  -43.6310 O.3       1 <1>        -0.2271 
     24 C24         2.9752   22.5932  -44.8267 C.3       1 <1>        -0.0323 
     25 O25         4.7721   21.2372  -42.7802 O.2       1 <1>        -0.3691 
     26 H1         -1.4358   13.1673  -43.8170 H         1 <1>         0.0571 
     27 H2         -3.3306   11.7793  -42.9363 H         1 <1>         0.0545 
     28 H3         -4.7218   12.5981  -41.0635 H         1 <1>         0.0565 
     29 H4         -4.2745   14.8150  -40.0107 H         1 <1>         0.0574 
     30 H5         -2.2172   18.1819  -39.7199 H         1 <1>         0.0590 
     31 H6         -2.6818   16.6597  -38.9100 H         1 <1>         0.0590 
     32 H7         -3.7998   17.4364  -40.0779 H         1 <1>         0.0590 
     33 H8         -0.9499   17.0130  -45.0458 H         1 <1>         0.0030 
     34 H9         -0.5643   15.2825  -45.2801 H         1 <1>         0.0030 
     35 H10         0.6733   16.5262  -45.6168 H         1 <1>         0.0030 
     36 H11         1.7478   15.0823  -42.2222 H         1 <1>         0.0030 
     37 H12         2.3151   15.3439  -43.8979 H         1 <1>         0.0030 
     38 H13         1.0721   14.1067  -43.5600 H         1 <1>         0.0030 
     39 H14         1.8295   19.2417  -42.8101 H         1 <1>         0.1741 
     40 H15         4.1113   18.3441  -45.5085 H         1 <1>         0.1255 
     41 H16         2.1854   20.1215  -46.1453 H         1 <1>         0.0709 
     42 H17         2.0799   22.8552  -44.2435 H         1 <1>         0.0347 
     43 H18         2.7836   22.7935  -45.8917 H         1 <1>         0.0347 
     44 H19         3.8161   23.2196  -44.4928 H         1 <1>         0.0347 
@<TRIPOS>BOND
     1    2    1 ar   
     2    2    3 ar   
     3    3    4 ar   
     4    4    5 ar   
     5    5    6 ar   
     6    1    6 ar   
     7    6    7 1    
     8    7    8 2    
     9    8    9 1    
    10    5    9 1    
    11    9   10 1    
    12    7   11 1    
    13   11   12 1    
    14   11   13 1    
    15   11   14 1    
    16   14   15 1    
    17    8   15 1    
    18   15   16 2    
    19   14   17 2    
    20   17   18 1    
    21   18   19 1    
    22   19   20 1    
    23   20   21 2    
    24   21   22 1    
    25   22   23 1    
    26   19   23 1    
    27   21   24 1    
    28   22   25 2    
    29    1   26 1    
    30    2   27 1    
    31    3   28 1    
    32    4   29 1    
    33   10   30 1    
    34   10   31 1    
    35   10   32 1    
    36   12   33 1    
    37   12   34 1    
    38   12   35 1    
    39   13   36 1    
    40   13   37 1    
    41   13   38 1    
    42   17   39 1    
    43   19   40 1    
    44   20   41 1    
    45   24   42 1    
    46   24   43 1    
    47   24   44 1    
@<TRIPOS>SUBSTRUCTURE
     1 ****        2 TEMP              0 ****  ****    0 ROOT 
@<TRIPOS>NORMAL
@<TRIPOS>FF_PBC
FORCE_FIELD_SETUP_FEATURE Force Field Setup information
v1.0  0 0.000000 0.000000 0.000000 0.000000 0.000000 0.000000 NONE 0 0 0 0 1 0 0 0 0 0 0 0 0
