#	Name:			PISM00632
#	Creating user name:	baoopengkun
#	Creation time:		Mon Dec 10 11:11:57 2018

#	Modifying user name:	baoopengkun
#	Modification time:	Mon Dec 10 11:12:10 2018

@<TRIPOS>MOLECULE
PISM00632
   50    54     1     2     0
SMALL
GAST_HUCK


@<TRIPOS>ATOM
      1 C1         14.1431   -2.5712  -29.1935 C.ar      1 <1>        -0.0348 
      2 C2         14.2361   -3.8368  -28.6078 C.ar      1 <1>        -0.0180 
      3 C3         13.7877   -4.9634  -29.3027 C.ar      1 <1>         0.0714 
      4 C4         13.2226   -4.8205  -30.5726 C.ar      1 <1>        -0.0180 
      5 C5         13.1351   -3.5551  -31.1601 C.ar      1 <1>        -0.0348 
      6 C6         13.6218   -2.4315  -30.4839 C.ar      1 <1>         0.0068 
      7 C7         13.5793   -1.0530  -31.1552 C.3       1 <1>         0.1921 
      8 C8         12.1987   -0.4092  -30.9021 C.3       1 <1>         0.1073 
      9 N9         11.8688   -0.4619  -29.4843 N.pl3     1 <1>        -0.1814 
     10 N10        12.1296    0.4969  -28.5521 N.2       1 <1>        -0.1908 
     11 C11        11.7057    0.1912  -27.3823 C.2       1 <1>         0.0618 
     12 N12        11.1136   -1.0931  -27.6375 N.2       1 <1>        -0.2870 
     13 C13        11.2361   -1.3999  -28.8479 C.2       1 <1>         0.1270 
     14 O14        14.6473   -0.1916  -30.7378 O.3       1 <1>        -0.3814 
     15 C15        15.8357   -0.6868  -31.3598 C.3       1 <1>         0.0672 
     16 C16        15.2863   -1.1625  -32.7278 C.3       1 <1>         0.1004 
     17 O17        13.8581   -1.1510  -32.5588 O.3       1 <1>        -0.3757 
     18 C18        15.8283   -2.5517  -33.1559 C.3       1 <1>         0.0980 
     19 O19        15.6749   -3.5116  -32.0968 O.3       1 <1>        -0.3147 
     20 C20        16.1235   -4.7945  -32.3972 C.ar      1 <1>         0.0923 
     21 C21        15.3053   -5.6732  -33.1096 C.ar      1 <1>        -0.0274 
     22 C22        15.7580   -6.9621  -33.4030 C.ar      1 <1>        -0.0562 
     23 C23        17.0327   -7.3731  -32.9938 C.ar      1 <1>        -0.0247 
     24 C24        17.8543   -6.4888  -32.2812 C.ar      1 <1>        -0.0287 
     25 C25        17.3920   -5.2021  -31.9806 C.ar      1 <1>        -0.0292 
     26 C26        17.4937   -8.6612  -33.2919 C.ar      1 <1>        -0.0585 
     27 C27        18.7692   -9.0658  -32.8884 C.ar      1 <1>        -0.0648 
     28 C28        19.5888   -8.1830  -32.1810 C.ar      1 <1>        -0.0653 
     29 Cl29       13.9319   -6.5539  -28.5834 Cl        1 <1>        -0.0420 
     30 H1         14.4745   -1.6943  -28.6453 H         1 <1>         0.0849 
     31 H2         14.6563   -3.9462  -27.6134 H         1 <1>         0.0703 
     32 H3         12.8549   -5.6939  -31.1012 H         1 <1>         0.0703 
     33 H4         12.6955   -3.4452  -32.1464 H         1 <1>         0.0849 
     34 H5         11.4366   -0.9426  -31.4901 H         1 <1>         0.0595 
     35 H6         12.2288    0.6382  -31.2369 H         1 <1>         0.0595 
     36 H7         11.7749    0.7532  -26.4525 H         1 <1>         0.0863 
     37 H8         10.8593   -2.3255  -29.2817 H         1 <1>         0.1361 
     38 H9         16.2410   -1.5170  -30.7609 H         1 <1>         0.0576 
     39 H10        16.6009    0.1006  -31.4388 H         1 <1>         0.0576 
     40 H11        15.5012   -0.4186  -33.5130 H         1 <1>         0.0635 
     41 H12        16.8979   -2.4587  -33.4053 H         1 <1>         0.0641 
     42 H13        15.2765   -2.8772  -34.0524 H         1 <1>         0.0641 
     43 H14        14.3210   -5.3515  -33.4318 H         1 <1>         0.0590 
     44 H15        15.1100   -7.6386  -33.9514 H         1 <1>         0.0618 
     45 C45        19.1305   -6.8984  -31.8765 C.ar      1 <1>        -0.0600 
     46 H16        18.0084   -4.5051  -31.4230 H         1 <1>         0.0497 
     47 H17        16.8663   -9.3580  -33.8392 H         1 <1>         0.0616 
     48 H18        19.1234  -10.0650  -33.1236 H         1 <1>         0.0586 
     49 H19        20.5809   -8.4952  -31.8683 H         1 <1>         0.0607 
     50 H20        19.7763   -6.2230  -31.3234 H         1 <1>         0.0590 
@<TRIPOS>BOND
     1    1    2 ar   
     2    2    3 ar   
     3    3    4 ar   
     4    4    5 ar   
     5    5    6 ar   
     6    6    1 ar   
     7    6    7 1    
     8    7    8 1    
     9    8    9 1    
    10    9   10 1    
    11   10   11 2    
    12   11   12 1    
    13   12   13 2    
    14    9   13 1    
    15    7   14 1    
    16   14   15 1    
    17   15   16 1    
    18   16   17 1    
    19   17    7 1    
    20   16   18 1    
    21   18   19 1    
    22   19   20 1    
    23   20   21 ar   
    24   21   22 ar   
    25   22   23 ar   
    26   23   24 ar   
    27   24   25 ar   
    28   25   20 ar   
    29   23   26 ar   
    30   26   27 ar   
    31   27   28 ar   
    32    3   29 1    
    33    1   30 1    
    34    2   31 1    
    35    4   32 1    
    36    5   33 1    
    37    8   34 1    
    38    8   35 1    
    39   11   36 1    
    40   13   37 1    
    41   15   38 1    
    42   15   39 1    
    43   16   40 1    
    44   18   41 1    
    45   18   42 1    
    46   21   43 1    
    47   22   44 1    
    48   28   45 ar   
    49   24   45 ar   
    50   25   46 1    
    51   26   47 1    
    52   27   48 1    
    53   28   49 1    
    54   45   50 1    
@<TRIPOS>SUBSTRUCTURE
     1 ****       25 TEMP              0 ****  ****    0 ROOT 
@<TRIPOS>NORMAL
@<TRIPOS>FF_PBC
FORCE_FIELD_SETUP_FEATURE Force Field Setup information
v1.0  0 0.000000 0.000000 0.000000 0.000000 0.000000 0.000000 NONE 0 0 0 0 1 0 0 0 0 0 0 0 0
@<TRIPOS>RENDERING_ATTRS
ANTIALIASED_LINES 
*
