#	Name:			PISM00862.1
#	Creating user name:	baoopengkun
#	Creation time:		Thu Dec 13 15:12:19 2018

#	Modifying user name:	baoopengkun
#	Modification time:	Thu Dec 13 22:41:32 2018

@<TRIPOS>MOLECULE
PISM00862.1
   24    25     1     1     0
SMALL
GAST_HUCK


@<TRIPOS>ATOM
      1 F1          0.5854    1.2338    1.4076 F         1 <1>        -0.1902 
      2 C2          2.8260    0.5755    1.7479 C.ar      1 <1>        -0.0366 
      3 C3          4.1850    0.7405    1.4645 C.ar      1 <1>        -0.0742 
      4 C4          4.5939    1.7315    0.5673 C.ar      1 <1>        -0.0606 
      5 C5          3.6455    2.5573   -0.0430 C.ar      1 <1>         0.0668 
      6 C6          2.2877    2.4026    0.2512 C.ar      1 <1>         0.1457 
      7 C7          1.8784    1.4030    1.1398 C.ar      1 <1>         0.1606 
      8 Cl8         4.1578    3.7847   -1.1834 Cl        1 <1>        -0.0800 
      9 O9          1.3493    3.2468   -0.3444 O.3       1 <1>        -0.2699 
     10 C10         0.5805    2.6416   -1.3937 C.3       1 <1>         0.2352 
     11 O11        -0.2633    3.6630   -1.9610 O.3       1 <1>        -0.2314 
     12 C12         0.1704    3.8267   -3.2046 C.2       1 <1>         0.2494 
     13 C13         1.2587    2.9451   -3.6109 C.2       1 <1>         0.0292 
     14 C14         1.4924    2.2168   -2.5214 C.2       1 <1>        -0.0020 
     15 C15         1.9440    2.8650   -4.9473 C.3       1 <1>        -0.0323 
     16 O16        -0.3185    4.6533   -3.9555 O.2       1 <1>        -0.3691 
     17 H1          2.5009   -0.1945    2.4400 H         1 <1>         0.0576 
     18 H2          4.9216    0.0998    1.9403 H         1 <1>         0.0514 
     19 H3          5.6479    1.8611    0.3427 H         1 <1>         0.0560 
     20 H4         -0.0431    1.8079   -1.0308 H         1 <1>         0.1198 
     21 H5          2.2431    1.4306   -2.4523 H         1 <1>         0.0705 
     22 H6          2.0646    1.8136   -5.2481 H         1 <1>         0.0347 
     23 H7          2.9353    3.3371   -4.8781 H         1 <1>         0.0347 
     24 H8          1.3503    3.3886   -5.7116 H         1 <1>         0.0347 
@<TRIPOS>BOND
     1    7    1 1    
     2    2    3 ar   
     3    3    4 ar   
     4    4    5 ar   
     5    5    6 ar   
     6    6    7 ar   
     7    2    7 ar   
     8    5    8 1    
     9    6    9 1    
    10    9   10 1    
    11   10   11 1    
    12   11   12 1    
    13   12   13 1    
    14   13   14 2    
    15   10   14 1    
    16   13   15 1    
    17   12   16 2    
    18    2   17 1    
    19    3   18 1    
    20    4   19 1    
    21   10   20 1    
    22   14   21 1    
    23   15   22 1    
    24   15   23 1    
    25   15   24 1    
@<TRIPOS>SUBSTRUCTURE
     1 ****        2 TEMP              0 ****  ****    0 ROOT 
@<TRIPOS>NORMAL
@<TRIPOS>FF_PBC
FORCE_FIELD_SETUP_FEATURE Force Field Setup information
v1.0  0 0.000000 0.000000 0.000000 0.000000 0.000000 0.000000 NONE 0 0 0 0 1 0 0 0 0 0 0 0 0
