#	Name:			PISM01086
#	Creating user name:	14062
#	Creation time:		Sat Apr 06 21:10:13 2019

#	Modifying user name:	14062
#	Modification time:	Sat Apr 06 21:16:08 2019

@<TRIPOS>MOLECULE
PISM01086
   89    93     1     1     0
SMALL
GAST_HUCK


@<TRIPOS>ATOM
      1 C1        -10.6426    5.8026  -19.8224 C.3       1 <1>        -0.0063 
      2 C2         -9.5242    4.6986  -19.7965 C.3       1 <1>        -0.0298 
      3 C3         -8.1975    4.9999  -19.0231 C.3       1 <1>        -0.0257 
      4 C4         -7.7935    6.4875  -19.2811 C.3       1 <1>        -0.0468 
      5 C5         -8.9555    7.4961  -19.1160 C.3       1 <1>        -0.0487 
      6 C6        -10.0991    7.2300  -20.1481 C.3       1 <1>        -0.0276 
      7 C7        -11.7685    5.3207  -20.7811 C.3       1 <1>         0.0801 
      8 O8        -13.0602    5.7691  -20.3646 O.3       1 <1>        -0.2763 
      9 C9        -13.3187    7.0744  -20.4561 C.2       1 <1>         0.2374 
     10 C10       -12.3806    8.0689  -21.1226 C.3       1 <1>         0.0682 
     11 C11       -11.1371    8.4319  -20.2357 C.3       1 <1>        -0.0055 
     12 C12       -10.4220    9.6391  -20.9417 C.3       1 <1>        -0.0159 
     13 C13       -11.2953   10.8753  -21.2818 C.3       1 <1>         0.0889 
     14 C14       -12.5272   10.4831  -22.1063 C.3       1 <1>         0.0905 
     15 C15       -13.2840    9.2879  -21.4952 C.3       1 <1>        -0.0024 
     16 O16       -14.3836    7.4363  -19.9838 O.2       1 <1>        -0.3701 
     17 C17        -9.0314    4.1480  -21.1562 C.3       1 <1>        -0.0491 
     18 C18        -7.9356    3.1686  -20.6725 C.3       1 <1>        -0.0491 
     19 C19        -7.1181    4.0346  -19.6739 C.3       1 <1>        -0.0304 
     20 C20        -8.4639    4.7302  -17.5065 C.3       1 <1>        -0.0590 
     21 C21       -11.6052    8.8681  -18.8119 C.3       1 <1>        -0.0568 
     22 O22       -11.8999   10.2429  -23.3674 O.3       1 <1>        -0.3432 
     23 O23       -10.5795   11.7008  -22.2210 O.3       1 <1>        -0.3434 
     24 C24       -10.9654   11.3210  -23.5589 C.3       1 <1>         0.1654 
     25 C25       -11.6350   12.5419  -24.2452 C.3       1 <1>        -0.0108 
     26 C26        -9.7603   10.8458  -24.4097 C.3       1 <1>        -0.0108 
     27 H1        -11.0857    5.8428  -18.8137 H         1 <1>         0.0332 
     28 H2        -10.0092    3.8330  -19.3077 H         1 <1>         0.0310 
     29 H3         -7.4259    6.6388  -20.3089 H         1 <1>         0.0271 
     30 H4         -6.9789    6.7761  -18.6007 H         1 <1>         0.0271 
     31 H5         -8.5027    8.4883  -19.2425 H         1 <1>         0.0268 
     32 H6         -9.3304    7.4444  -18.0839 H         1 <1>         0.0268 
     33 H7         -9.6459    7.1224  -21.1455 H         1 <1>         0.0311 
     34 H8        -11.9117    4.2356  -20.6625 H         1 <1>         0.0616 
     35 H9        -11.5384    5.4878  -21.8438 H         1 <1>         0.0616 
     36 H10       -12.0255    7.6941  -22.0940 H         1 <1>         0.0560 
     37 H11       -10.0000    9.2711  -21.8844 H         1 <1>         0.0298 
     38 H12        -9.5920   10.0522  -20.3545 H         1 <1>         0.0298 
     39 H13       -11.5603   11.4401  -20.3732 H         1 <1>         0.0623 
     40 H14       -13.2229   11.3354  -22.1906 H         1 <1>         0.0624 
     41 H15       -14.0469    8.9713  -22.2267 H         1 <1>         0.0319 
     42 H16       -13.8209    9.6792  -20.6174 H         1 <1>         0.0319 
     43 H17        -8.6035    4.9453  -21.7841 H         1 <1>         0.0268 
     44 H18        -9.7996    3.6135  -21.7378 H         1 <1>         0.0268 
     45 H19        -7.3576    2.7668  -21.5211 H         1 <1>         0.0268 
     46 H20        -8.4367    2.3332  -20.1635 H         1 <1>         0.0268 
     47 H21        -6.4781    4.6119  -20.3613 H         1 <1>         0.0310 
     48 C48        -6.0587    3.3009  -18.7634 C.3       1 <1>        -0.0120 
     49 H23        -7.6158    5.0142  -16.8720 H         1 <1>         0.0235 
     50 H24        -8.6791    3.6655  -17.3317 H         1 <1>         0.0235 
     51 H25        -9.3358    5.2934  -17.1477 H         1 <1>         0.0235 
     52 H26       -12.0154    8.0132  -18.2555 H         1 <1>         0.0237 
     53 H27       -12.3800    9.6435  -18.8436 H         1 <1>         0.0237 
     54 H28       -10.7751    9.2938  -18.2305 H         1 <1>         0.0237 
     55 H29       -10.8882   13.3326  -24.4120 H         1 <1>         0.0281 
     56 H30       -12.4411   12.9697  -23.6343 H         1 <1>         0.0281 
     57 H31       -12.0556   12.2384  -25.2153 H         1 <1>         0.0281 
     58 H32        -9.2758    9.9661  -23.9676 H         1 <1>         0.0281 
     59 H33        -9.0128   11.6494  -24.4856 H         1 <1>         0.0281 
     60 H34       -10.1017   10.5763  -25.4203 H         1 <1>         0.0281 
     61 H22        -6.5511    2.8287  -17.9006 H         1 <1>         0.0327 
     62 C62        -5.0341    4.3392  -18.2037 C.3       1 <1>        -0.0597 
     63 C63        -5.2615    2.1758  -19.5227 C.3       1 <1>         0.0841 
     64 C64        -5.8922    0.7478  -19.3967 C.3       1 <1>         0.0841 
     65 C65        -5.5731   -0.2022  -20.6038 C.3       1 <1>        -0.0130 
     66 C66        -6.2773   -1.6072  -20.5120 C.3       1 <1>        -0.0417 
     67 C67        -6.1351   -2.4317  -21.8300 C.3       1 <1>        -0.0623 
     68 C68        -7.7973   -1.5028  -20.1777 C.3       1 <1>        -0.0623 
     69 H35        -4.3887    4.7085  -19.0156 H         1 <1>         0.0233 
     70 H36        -4.3935    3.8921  -17.4291 H         1 <1>         0.0233 
     71 H37        -5.5100    5.2071  -17.7394 H         1 <1>         0.0233 
     72 O72        -3.9031    2.0802  -19.0518 O.3       1 <1>        -0.3890 
     73 H39        -5.1678    2.4842  -20.5747 H         1 <1>         0.0622 
     74 H40        -6.9753    0.8806  -19.3250 H         1 <1>         0.0622 
     75 O75        -5.4226    0.2149  -18.1405 O.3       1 <1>        -0.3890 
     76 C76        -4.0313   -0.3484  -20.7799 C.3       1 <1>        -0.0597 
     77 H43        -5.9670    0.2935  -21.5072 H         1 <1>         0.0326 
     78 H44        -5.8001   -2.2010  -19.7141 H         1 <1>         0.0299 
     79 H45        -6.7153   -3.3658  -21.7746 H         1 <1>         0.0232 
     80 H46        -5.0981   -2.7326  -22.0309 H         1 <1>         0.0232 
     81 H47        -6.5074   -1.8498  -22.6870 H         1 <1>         0.0232 
     82 H48        -8.2915   -0.8097  -20.8761 H         1 <1>         0.0232 
     83 H49        -7.9724   -1.1623  -19.1470 H         1 <1>         0.0232 
     84 H50        -8.2916   -2.4832  -20.2595 H         1 <1>         0.0232 
     85 H38        -3.8704    1.6705  -18.1911 H         1 <1>         0.2099 
     86 H41        -5.8053   -0.6226  -17.9032 H         1 <1>         0.2099 
     87 H42        -3.5940   -0.8107  -19.8819 H         1 <1>         0.0233 
     88 H51        -3.5470    0.6237  -20.9434 H         1 <1>         0.0233 
     89 H52        -3.7633   -0.9572  -21.6522 H         1 <1>         0.0233 
@<TRIPOS>BOND
     1    2    1 1    
     2    2    3 1    
     3    3    4 1    
     4    4    5 1    
     5    5    6 1    
     6    1    6 1    
     7    1    7 1    
     8    7    8 1    
     9    8    9 1    
    10    9   10 1    
    11   10   11 1    
    12    6   11 1    
    13   11   12 1    
    14   12   13 1    
    15   13   14 1    
    16   14   15 1    
    17   10   15 1    
    18    9   16 2    
    19    2   17 1    
    20   17   18 1    
    21   18   19 1    
    22    3   19 1    
    23    3   20 1    
    24   11   21 1    
    25   14   22 1    
    26   13   23 1    
    27   23   24 1    
    28   22   24 1    
    29   24   25 1    
    30   24   26 1    
    31    1   27 1    
    32    2   28 1    
    33    4   29 1    
    34    4   30 1    
    35    5   31 1    
    36    5   32 1    
    37    6   33 1    
    38    7   34 1    
    39    7   35 1    
    40   10   36 1    
    41   12   37 1    
    42   12   38 1    
    43   13   39 1    
    44   14   40 1    
    45   15   41 1    
    46   15   42 1    
    47   17   43 1    
    48   17   44 1    
    49   18   45 1    
    50   18   46 1    
    51   19   47 1    
    52   19   48 1    
    53   20   49 1    
    54   20   50 1    
    55   20   51 1    
    56   21   52 1    
    57   21   53 1    
    58   21   54 1    
    59   25   55 1    
    60   25   56 1    
    61   25   57 1    
    62   26   58 1    
    63   26   59 1    
    64   26   60 1    
    65   48   61 1    
    66   48   62 1    
    67   48   63 1    
    68   63   64 1    
    69   64   65 1    
    70   65   66 1    
    71   66   67 1    
    72   66   68 1    
    73   62   69 1    
    74   62   70 1    
    75   62   71 1    
    76   63   72 1    
    77   63   73 1    
    78   64   74 1    
    79   64   75 1    
    80   65   76 1    
    81   65   77 1    
    82   66   78 1    
    83   67   79 1    
    84   67   80 1    
    85   67   81 1    
    86   68   82 1    
    87   68   83 1    
    88   68   84 1    
    89   72   85 1    
    90   75   86 1    
    91   76   87 1    
    92   76   88 1    
    93   76   89 1    
@<TRIPOS>SUBSTRUCTURE
     1 ****        2 TEMP              0 ****  ****    0 ROOT 
@<TRIPOS>NORMAL
@<TRIPOS>FF_PBC
FORCE_FIELD_SETUP_FEATURE Force Field Setup information
v1.0  0 0.000000 0.000000 0.000000 0.000000 0.000000 0.000000 NONE 0 0 0 0 1 0 0 0 0 0 0 0 0
