#	Name:			PISM01022
#	Creating user name:	14062
#	Creation time:		Sat Oct 19 23:50:29 2019

#	Modifying user name:	14062
#	Modification time:	Sat Oct 19 23:53:33 2019

@<TRIPOS>MOLECULE
PISM01022
   28    30     2     1     0
SMALL
GAST_HUCK


@<TRIPOS>ATOM
      1 C1          0.8611    0.2582   -4.4915 C.2       1 BENZYL      0.3377 
      2 N2          2.0743    0.4224   -4.0195 N.pl3     1 BENZYL     -0.1538 
      3 C2          3.1816    0.2662   -4.7990 C.ar      1 BENZYL      0.1073 
      4 C3          3.0462   -0.1513   -6.1263 C.ar      1 BENZYL      0.0812 
      5 C4          4.1569   -0.3888   -6.9414 C.ar      1 BENZYL     -0.0502 
      6 C5          5.4407   -0.1790   -6.4339 C.ar      1 BENZYL     -0.0672 
      7 C6          5.5961    0.2834   -5.1248 C.ar      1 BENZYL     -0.0664 
      8 C7          4.4764    0.5203   -4.3209 C.ar      1 BENZYL     -0.0291 
      9 N9          0.6375   -0.0968   -5.7709 N.am      1 BENZYL     -0.1772 
     10 C10         1.6369   -0.3253   -6.6310 C.2       1 BENZYL      0.2276 
     11 O11         1.4279   -0.6614   -7.7841 O.2       1 BENZYL     -0.3830 
     12 O12        -0.1125    0.4176   -3.7734 O.2       1 BENZYL     -0.3710 
     13 H1          4.0243   -0.7333   -7.9624 H         1 BENZYL      0.0640 
     14 C2          2.2043    0.7473   -2.7100 C.ar      2 BENZYL      0.0874 
     15 C3          1.8053    2.0082   -2.2557 C.ar      2 BENZYL     -0.0350 
     16 C4          1.9536    2.3475   -0.9077 C.ar      2 BENZYL     -0.0708 
     17 C5          2.4990    1.4240   -0.0110 C.ar      2 BENZYL     -0.0729 
     18 C6          2.8887    0.1591   -0.4608 C.ar      2 BENZYL     -0.0708 
     19 C7          2.7359   -0.1802   -1.8082 C.ar      2 BENZYL     -0.0350 
     20 H2          6.3117   -0.3717   -7.0533 H         1 BENZYL      0.0535 
     21 H3          6.5930    0.4605   -4.7315 H         1 BENZYL      0.0624 
     22 H4          4.6427    0.9100   -3.3225 H         1 BENZYL      0.0554 
     23 H5         -0.3027   -0.2073   -6.0901 H         1 BENZYL      0.2271 
     24 H6          1.3810    2.7236   -2.9527 H         2 BENZYL      0.0543 
     25 H7          1.6452    3.3279   -0.5575 H         2 BENZYL      0.0589 
     26 H8          2.6190    1.6890    1.0352 H         2 BENZYL      0.0523 
     27 H9          3.3092   -0.5595    0.2362 H         2 BENZYL      0.0589 
     28 H10         3.0293   -1.1650   -2.1573 H         2 BENZYL      0.0543 
@<TRIPOS>BOND
     1    2    3 1    
     2    3    4 ar   
     3    3    8 ar   
     4    8    7 ar   
     5    7    6 ar   
     6    6    5 ar   
     7    5    4 ar   
     8    2    1 1    
     9    1    9 am   
    10    9   10 am   
    11    4   10 1    
    12   10   11 2    
    13    1   12 2    
    14   14    2 1    
    15   14   15 ar   
    16   14   19 ar   
    17   19   18 ar   
    18   18   17 ar   
    19   17   16 ar   
    20   16   15 ar   
    21    5   13 1    
    22    6   20 1    
    23    7   21 1    
    24    8   22 1    
    25    9   23 1    
    26   15   24 1    
    27   16   25 1    
    28   17   26 1    
    29   18   27 1    
    30   19   28 1    
@<TRIPOS>SUBSTRUCTURE
     1 BENZYL      2 PERM              0 ****  ****    1  
     2 BENZYL     14 PERM              0 ****  ****    1 ROOT 
@<TRIPOS>NORMAL
@<TRIPOS>FF_PBC
FORCE_FIELD_SETUP_FEATURE Force Field Setup information
v1.0  0 0.000000 0.000000 0.000000 0.000000 0.000000 0.000000 NONE 0 0 0 0 1 0 0 0 0 0 0 0 0
