#	Name:			PISM00823
#	Creating user name:	baoopengkun
#	Creation time:		Sat Dec 15 02:38:13 2018

#	Modifying user name:	baoopengkun
#	Modification time:	Sat Dec 15 02:39:58 2018

@<TRIPOS>MOLECULE
PISM00823
   33    34     1     1     0
SMALL
GAST_HUCK


@<TRIPOS>ATOM
      1 N1          9.3380   21.2719  -42.4886 N.pl3     1 <1>         0.1191 
      2 O2          9.5706   22.1175  -41.6518 O.2       1 <1>        -0.1138 
      3 O3         10.1681   20.4864  -42.8928 O.2       1 <1>        -0.1138 
      4 C4          8.0788   21.1997  -42.9999 C.ar      1 <1>         0.1269 
      5 C5          7.0768   22.0852  -42.5784 C.ar      1 <1>        -0.0414 
      6 C6          5.7763   21.9944  -43.0833 C.ar      1 <1>        -0.0733 
      7 C7          5.4463   21.0228  -44.0333 C.ar      1 <1>        -0.0507 
      8 C8          6.4521   20.1646  -44.4897 C.ar      1 <1>        -0.0733 
      9 C9          7.7455   20.2382  -43.9643 C.ar      1 <1>        -0.0414 
     10 C10         4.0283   20.9135  -44.5598 C.2       1 <1>        -0.0389 
     11 C11         3.2930   22.1901  -44.9020 C.3       1 <1>        -0.0454 
     12 C12         3.4473   19.7139  -44.7118 C.2       1 <1>         0.0566 
     13 O13         4.1108   18.5995  -44.3705 O.3       1 <1>        -0.2840 
     14 C14         3.3693   17.3906  -44.5983 C.3       1 <1>         0.2350 
     15 C15         4.1820   16.2491  -44.0398 C.2       1 <1>        -0.0015 
     16 C16         3.5340   15.6598  -43.0371 C.2       1 <1>         0.0292 
     17 C17         2.2883   16.4134  -42.9465 C.2       1 <1>         0.2495 
     18 O18         2.1492   17.3954  -43.8283 O.3       1 <1>        -0.2310 
     19 C19         3.9843   14.4995  -42.1921 C.3       1 <1>        -0.0323 
     20 O20         1.4253   16.1591  -42.1241 O.2       1 <1>        -0.3691 
     21 H1          7.2931   22.8588  -41.8485 H         1 <1>         0.0510 
     22 H2          5.0219   22.6855  -42.7235 H         1 <1>         0.0538 
     23 H3          6.2387   19.4371  -45.2661 H         1 <1>         0.0538 
     24 H4          8.4883   19.5332  -44.3234 H         1 <1>         0.0510 
     25 H5          3.9799   22.8794  -45.4158 H         1 <1>         0.0322 
     26 H6          2.9284   22.6698  -43.9820 H         1 <1>         0.0322 
     27 H7          2.4304   22.0171  -45.5634 H         1 <1>         0.0322 
     28 H8          2.4279   19.6733  -45.1030 H         1 <1>         0.0919 
     29 H9          3.1575   17.2277  -45.6685 H         1 <1>         0.1204 
     30 H10         5.1658   15.9577  -44.4055 H         1 <1>         0.0706 
     31 H11         3.3676   14.4290  -41.2835 H         1 <1>         0.0347 
     32 H12         5.0363   14.6323  -41.8984 H         1 <1>         0.0347 
     33 H13         3.8844   13.5665  -42.7661 H         1 <1>         0.0347 
@<TRIPOS>BOND
     1    2    1 2    
     2    1    3 2    
     3    1    4 1    
     4    4    5 ar   
     5    5    6 ar   
     6    6    7 ar   
     7    7    8 ar   
     8    8    9 ar   
     9    4    9 ar   
    10    7   10 1    
    11   10   11 1    
    12   10   12 2    
    13   12   13 1    
    14   13   14 1    
    15   14   15 1    
    16   15   16 2    
    17   16   17 1    
    18   17   18 1    
    19   14   18 1    
    20   16   19 1    
    21   17   20 2    
    22    5   21 1    
    23    6   22 1    
    24    8   23 1    
    25    9   24 1    
    26   11   25 1    
    27   11   26 1    
    28   11   27 1    
    29   12   28 1    
    30   14   29 1    
    31   15   30 1    
    32   19   31 1    
    33   19   32 1    
    34   19   33 1    
@<TRIPOS>SUBSTRUCTURE
     1 ****        2 TEMP              0 ****  ****    0 ROOT 
@<TRIPOS>NORMAL
@<TRIPOS>FF_PBC
FORCE_FIELD_SETUP_FEATURE Force Field Setup information
v1.0  0 0.000000 0.000000 0.000000 0.000000 0.000000 0.000000 NONE 0 0 0 0 1 0 0 0 0 0 0 0 0
