#	Name:			PISM00331
#	Creating user name:	malab
#	Creation time:		Fri Apr 05 17:31:50 2019

#	Modifying user name:	malab
#	Modification time:	Fri Apr 05 17:33:09 2019

@<TRIPOS>MOLECULE
PISM00331
   40    40     1     1     0
SMALL
GAST_HUCK


@<TRIPOS>ATOM
      1 C1         -9.6299   -7.6146  -18.4710 C.3       1 <1>        -0.0595 
      2 C2        -11.0796   -7.1919  -18.8521 C.3       1 <1>        -0.0109 
      3 C3        -11.7809   -8.3487  -19.5077 C.2       1 <1>         0.1368 
      4 C4        -11.0133   -9.3038  -20.3239 C.2       1 <1>         0.0112 
      5 C5         -9.6826   -9.2084  -20.4570 C.2       1 <1>        -0.0769 
      6 C6         -8.8962   -8.1097  -19.7569 C.3       1 <1>         0.0067 
      7 O7        -12.9838   -8.4978  -19.3653 O.2       1 <1>        -0.3660 
      8 C8         -9.7134   -8.7428  -17.3920 C.3       1 <1>        -0.1007 
      9 C9         -8.8381   -6.4607  -17.8730 C.2       1 <1>        -0.0871 
     10 C10        -8.8430   -5.1973  -18.3185 C.2       1 <1>        -0.0424 
     11 H1        -11.6233   -6.8714  -17.9494 H         1 <1>         0.0000 
     12 O12        -8.8321   -6.9975  -20.6696 O.3       1 <1>        -0.4740 
     13 C13        -7.5033   -8.5611  -19.3615 C.2       1 <1>        -0.0963 
     14 C14        -6.4248   -7.7676  -19.4138 C.2       1 <1>        -0.0153 
     15 H2        -11.1155   -6.3717  -19.5820 H         1 <1>         0.0000 
     16 H3        -11.5676  -10.0992  -20.8223 H         1 <1>         0.0000 
     17 H4        -10.2774   -8.3841  -16.5172 H         1 <1>         0.0000 
     18 H5         -8.7178   -9.0467  -17.0365 H         1 <1>         0.0000 
     19 H6        -10.2161   -9.6431  -17.7733 H         1 <1>         0.0000 
     20 H7         -8.1924   -6.6615  -17.0160 H         1 <1>         0.0000 
     21 C21        -8.9082  -10.1811  -21.3217 C.3       1 <1>        -0.0376 
     22 H8         -8.2342   -4.4411  -17.8214 H         1 <1>         0.0000 
     23 H9         -9.4248   -4.8610  -19.1727 H         1 <1>         0.0000 
     24 H10        -8.3881   -7.2026  -21.4855 H         1 <1>         0.0000 
     25 H11        -7.3817   -9.5833  -19.0065 H         1 <1>         0.0000 
     26 H12        -6.5331   -6.7415  -19.7639 H         1 <1>         0.0000 
     27 C27        -5.0679   -8.1983  -19.0083 C.2       1 <1>         0.0000 
     28 H14        -8.4302  -10.9456  -20.6924 H         1 <1>         0.0000 
     29 H15        -8.1311   -9.6573  -21.8974 H         1 <1>         0.0000 
     30 H16        -9.5636  -10.6978  -22.0391 H         1 <1>         0.0000 
     31 C31        -4.9230   -9.2079  -17.8909 C.3       1 <1>         0.0000 
     32 C32        -3.9746   -7.6899  -19.5988 C.2       1 <1>         0.0000 
     33 C33        -3.9629   -6.7245  -20.7197 C.2       1 <1>         0.0000 
     34 O34        -3.1901   -5.7806  -20.6864 O.2       1 <1>         0.0000 
     35 O35        -4.7646   -6.8679  -21.7813 O.3       1 <1>         0.0000 
     36 H13        -5.7471   -9.1028  -17.1687 H         1 <1>         0.0000 
     37 H17        -3.9805   -9.0781  -17.3374 H         1 <1>         0.0000 
     38 H18        -4.9453  -10.2230  -18.3145 H         1 <1>         0.0000 
     39 H19        -2.9874   -7.9903  -19.2472 H         1 <1>         0.0000 
     40 H20        -5.2696   -7.6734  -21.7832 H         1 <1>         0.0000 
@<TRIPOS>BOND
     1    3    2 1    
     2    2    1 1    
     3    3    4 1    
     4    4    5 2    
     5    5    6 1    
     6    1    6 1    
     7    3    7 2    
     8    1    8 1    
     9    1    9 1    
    10    9   10 2    
    11    2   11 1    
    12    6   12 1    
    13    6   13 1    
    14   13   14 2    
    15    2   15 1    
    16    4   16 1    
    17    8   17 1    
    18    8   18 1    
    19    8   19 1    
    20    9   20 1    
    21    5   21 1    
    22   10   22 1    
    23   10   23 1    
    24   12   24 1    
    25   13   25 1    
    26   14   26 1    
    27   14   27 1    
    28   21   28 1    
    29   21   29 1    
    30   21   30 1    
    31   27   31 1    
    32   27   32 2    
    33   32   33 1    
    34   33   34 2    
    35   33   35 1    
    36   31   36 1    
    37   31   37 1    
    38   31   38 1    
    39   32   39 1    
    40   35   40 1    
@<TRIPOS>SUBSTRUCTURE
     1 ****        1 TEMP              0 ****  ****    0 ROOT 
@<TRIPOS>NORMAL
@<TRIPOS>FF_PBC
FORCE_FIELD_SETUP_FEATURE Force Field Setup information
v1.0  0 0.000000 0.000000 0.000000 0.000000 0.000000 0.000000 NONE 0 0 0 0 0 0 0 0 0 0 0 0 0
