#	Name:			PISM00933
#	Creating user name:	baoopengkun
#	Creation time:		Wed Dec 12 22:41:34 2018

#	Modifying user name:	baoopengkun
#	Modification time:	Wed Dec 12 22:44:48 2018

@<TRIPOS>MOLECULE
PISM00933
   29    29     1     1     0
SMALL
GAST_HUCK


@<TRIPOS>ATOM
      1 C1          2.0239  -11.8281   10.2442 C.3       1 <1>         0.0211 
      2 C2          2.3947  -10.6012    9.4573 C.2       1 <1>         0.1065 
      3 C3          3.5034   -9.8667    9.5178 C.2       1 <1>         0.0036 
      4 C4          3.4591   -8.7217    8.5304 C.3       1 <1>         0.1567 
      5 O5          2.1726   -8.8475    7.8905 O.3       1 <1>        -0.3011 
      6 C6          1.6106   -9.9228    8.4307 C.2       1 <1>         0.3142 
      7 C7          4.7036  -10.0493   10.4116 C.3       1 <1>        -0.0314 
      8 C8          4.5829   -8.7887    7.4668 C.3       1 <1>        -0.0382 
      9 O9          0.5080  -10.3179    8.0913 O.2       1 <1>        -0.3160 
     10 O10         3.5143   -7.4659    9.2152 O.3       1 <1>        -0.4268 
     11 C11         4.5745  -10.1317    6.6852 C.3       1 <1>        -0.0608 
     12 C12         5.6957  -10.1631    5.6114 C.3       1 <1>        -0.0569 
     13 C13         5.6915  -11.5035    4.8311 C.3       1 <1>        -0.0653 
     14 H1          2.7885  -12.6063   10.1023 H         1 <1>         0.0617 
     15 H2          1.0526  -12.2192    9.9058 H         1 <1>         0.0617 
     16 H3          1.9533  -11.5777   11.3131 H         1 <1>         0.0617 
     17 H4          4.5280  -10.8360   11.1597 H         1 <1>         0.0389 
     18 H5          4.9137   -9.1068   10.9390 H         1 <1>         0.0389 
     19 H6          5.5843  -10.3276    9.8150 H         1 <1>         0.0389 
     20 H7          5.5564   -8.6426    7.9602 H         1 <1>         0.0157 
     21 H8          4.4291   -7.9544    6.7638 H         1 <1>         0.0157 
     22 H9          2.7786   -7.3549    9.8073 H         1 <1>         0.1890 
     23 H10         3.5971  -10.2612    6.1923 H         1 <1>         0.0254 
     24 H11         4.7231  -10.9721    7.3820 H         1 <1>         0.0254 
     25 H12         6.6767  -10.0325    6.0983 H         1 <1>         0.0262 
     26 H13         5.5499   -9.3319    4.9013 H         1 <1>         0.0262 
     27 H14         4.7269  -11.6471    4.3198 H         1 <1>         0.0230 
     28 H15         5.8574  -12.3486    5.5174 H         1 <1>         0.0230 
     29 H16         6.4924  -11.5043    4.0748 H         1 <1>         0.0230 
@<TRIPOS>BOND
     1    2    1 1    
     2    2    3 2    
     3    3    4 1    
     4    4    5 1    
     5    5    6 1    
     6    2    6 1    
     7    3    7 1    
     8    4    8 1    
     9    6    9 2    
    10    4   10 1    
    11    8   11 1    
    12   11   12 1    
    13   12   13 1    
    14    1   14 1    
    15    1   15 1    
    16    1   16 1    
    17    7   17 1    
    18    7   18 1    
    19    7   19 1    
    20    8   20 1    
    21    8   21 1    
    22   10   22 1    
    23   11   23 1    
    24   11   24 1    
    25   12   25 1    
    26   12   26 1    
    27   13   27 1    
    28   13   28 1    
    29   13   29 1    
@<TRIPOS>SUBSTRUCTURE
     1 ****        2 TEMP              0 ****  ****    0 ROOT 
@<TRIPOS>NORMAL
@<TRIPOS>FF_PBC
FORCE_FIELD_SETUP_FEATURE Force Field Setup information
v1.0  0 0.000000 0.000000 0.000000 0.000000 0.000000 0.000000 NONE 0 0 0 0 1 0 0 0 0 0 0 0 0
