#	Name:			PISM00353
#	Creating user name:	baoopengkun
#	Creation time:		Sun Mar 31 21:55:38 2019

#	Modifying user name:	baoopengkun
#	Modification time:	Sun Mar 31 21:57:07 2019

@<TRIPOS>MOLECULE
PISM00353
   29    30     1     1     0
SMALL
GAST_HUCK


@<TRIPOS>ATOM
      1 C1          1.7385    4.9086   -9.2357 C.3       1 <1>         0.0164 
      2 N2          3.1480    5.2075   -8.9764 N.pl3     1 <1>        -0.3155 
      3 C3          3.6196    5.4113   -7.7652 C.2       1 <1>         0.0845 
      4 C4          2.7473    5.3516   -6.5680 C.2       1 <1>         0.0806 
      5 N5          3.2111    5.5386   -5.3978 N.2       1 <1>        -0.1454 
      6 N6          4.5177    5.8041   -5.1631 N.pl3     1 <1>        -0.1025 
      7 C7          5.3770    5.9017   -6.1424 C.2       1 <1>         0.2328 
      8 C8          4.9134    5.6857   -7.5256 C.2       1 <1>         0.1189 
      9 Cl9         6.0989    5.7990   -8.8186 Cl        1 <1>        -0.0945 
     10 O10         6.5532    6.1736   -5.9608 O.2       1 <1>        -0.4085 
     11 C11         4.8903    5.9877   -3.8721 C.ar      1 <1>         0.1380 
     12 C12         4.0914    6.7700   -3.0310 C.ar      1 <1>        -0.0006 
     13 C13         4.4630    7.0034   -1.7020 C.ar      1 <1>         0.0407 
     14 C14         5.6454    6.4402   -1.2110 C.ar      1 <1>        -0.0398 
     15 C15         6.4416    5.6438   -2.0385 C.ar      1 <1>        -0.0375 
     16 C16         6.0538    5.4014   -3.3592 C.ar      1 <1>        -0.0008 
     17 C17         3.5993    7.8652   -0.7735 C.3       1 <1>         0.3744 
     18 F18         2.9647    7.0540    0.1133 F         1 <1>        -0.2205 
     19 F19         2.6701    8.5735   -1.4708 F         1 <1>        -0.2205 
     20 F20         4.3908    8.7366   -0.0920 F         1 <1>        -0.2205 
     21 H1          1.5615    4.7664  -10.3146 H         1 <1>         0.0485 
     22 H2          1.0992    5.7410   -8.9023 H         1 <1>         0.0485 
     23 H3          1.4382    3.9796   -8.7261 H         1 <1>         0.0485 
     24 H4          3.7821    5.2550   -9.7911 H         1 <1>         0.1822 
     25 H5          1.6800    5.1489   -6.6096 H         1 <1>         0.0874 
     26 H6          3.1759    7.2003   -3.4226 H         1 <1>         0.0780 
     27 H7          5.9461    6.6195   -0.1830 H         1 <1>         0.0784 
     28 H8          7.3611    5.2116   -1.6546 H         1 <1>         0.0678 
     29 H9          6.6598    4.7477   -3.9779 H         1 <1>         0.0811 
@<TRIPOS>BOND
     1    2    1 1    
     2    2    3 1    
     3    3    4 1    
     4    4    5 2    
     5    5    6 1    
     6    6    7 1    
     7    7    8 1    
     8    3    8 2    
     9    8    9 1    
    10    7   10 2    
    11    6   11 1    
    12   11   12 ar   
    13   12   13 ar   
    14   13   14 ar   
    15   14   15 ar   
    16   15   16 ar   
    17   11   16 ar   
    18   13   17 1    
    19   17   18 1    
    20   17   19 1    
    21   17   20 1    
    22    1   21 1    
    23    1   22 1    
    24    1   23 1    
    25    2   24 1    
    26    4   25 1    
    27   12   26 1    
    28   14   27 1    
    29   15   28 1    
    30   16   29 1    
@<TRIPOS>SUBSTRUCTURE
     1 ****        2 TEMP              0 ****  ****    0 ROOT 
@<TRIPOS>NORMAL
@<TRIPOS>FF_PBC
FORCE_FIELD_SETUP_FEATURE Force Field Setup information
v1.0  0 0.000000 0.000000 0.000000 0.000000 0.000000 0.000000 NONE 0 0 0 0 1 0 0 0 0 0 0 0 0
