#	Name:			PISM01077
#	Creating user name:	Qinrunwen
#	Creation time:		Mon Apr 01 10:07:56 2019

#	Modifying user name:	Qinrunwen
#	Modification time:	Mon Apr 01 10:08:16 2019

@<TRIPOS>MOLECULE
PISM01077
   36    38     1     1     0
SMALL
GAST_HUCK


@<TRIPOS>ATOM
      1 C1         -2.8812   39.9498   11.2466 C.ar      1 <1>         0.0539 
      2 C2         -2.8217   38.5580   11.1335 C.ar      1 <1>         0.0534 
      3 C3         -3.9143   37.8606   10.6127 C.ar      1 <1>        -0.0478 
      4 C4         -5.0439   38.5572   10.1764 C.ar      1 <1>        -0.0515 
      5 C5         -5.0963   39.9570   10.2397 C.ar      1 <1>         0.0167 
      6 C6         -4.0189   40.6403   10.8217 C.ar      1 <1>        -0.0377 
      7 C7         -6.3052   40.6641    9.6642 C.2       1 <1>         0.1306 
      8 C8         -6.4764   41.9863    9.6054 C.2       1 <1>        -0.0405 
      9 C9         -7.7641   42.1210    8.9262 C.2       1 <1>        -0.0368 
     10 C10        -8.1577   40.8603    8.7044 C.2       1 <1>         0.1637 
     11 O11        -7.2977   39.9386    9.1531 O.3       1 <1>        -0.2442 
     12 C12        -9.3879   40.3720    8.0130 C.2       1 <1>         0.1064 
     13 N13       -10.5640   41.0311    7.7676 N.am      1 <1>        -0.2861 
     14 C14       -11.5841   40.3415    6.9610 C.3       1 <1>         0.0372 
     15 C15       -12.9731   41.0252    6.8551 C.3       1 <1>        -0.0307 
     16 C16       -12.8248   42.5620    6.7887 C.3       1 <1>        -0.0490 
     17 C17       -12.1425   43.0263    8.0941 C.3       1 <1>        -0.0307 
     18 C18       -10.7151   42.4285    8.1775 C.3       1 <1>         0.0372 
     19 S19        -9.2185   38.7451    7.4664 S.2       1 <1>        -0.2661 
     20 Cl20       -1.3927   37.6807   11.6397 Cl        1 <1>        -0.0705 
     21 Cl21       -1.5276   40.8361   11.9232 Cl        1 <1>        -0.0704 
     22 H1         -3.8826   36.7765   10.5465 H         1 <1>         0.0620 
     23 H2         -5.8851   37.9965    9.7799 H         1 <1>         0.0618 
     24 H3         -4.0478   41.7144   10.9505 H         1 <1>         0.0623 
     25 H4         -5.8532   42.8099    9.9439 H         1 <1>         0.0425 
     26 H5         -8.1769   43.0981    8.7013 H         1 <1>         0.0486 
     27 H6        -11.7800   39.3273    7.3468 H         1 <1>         0.0545 
     28 H7        -11.1757   40.2488    5.9402 H         1 <1>         0.0545 
     29 H8        -13.5855   40.7638    7.7349 H         1 <1>         0.0287 
     30 H9        -13.5089   40.6637    5.9605 H         1 <1>         0.0287 
     31 H10       -13.8183   43.0325    6.7013 H         1 <1>         0.0267 
     32 H11       -12.2215   42.8531    5.9127 H         1 <1>         0.0267 
     33 H12       -12.7430   42.6991    8.9594 H         1 <1>         0.0287 
     34 H13       -12.0964   44.1282    8.1234 H         1 <1>         0.0287 
     35 H14       -10.3819   42.5584    9.2186 H         1 <1>         0.0545 
     36 H15       -10.0959   43.0286    7.4928 H         1 <1>         0.0545 
@<TRIPOS>BOND
     1    2    1 ar   
     2    2    3 ar   
     3    3    4 ar   
     4    4    5 ar   
     5    5    6 ar   
     6    1    6 ar   
     7    5    7 1    
     8    7    8 2    
     9    8    9 1    
    10    9   10 2    
    11   10   11 1    
    12    7   11 1    
    13   10   12 1    
    14   12   13 am   
    15   13   14 1    
    16   14   15 1    
    17   15   16 1    
    18   16   17 1    
    19   17   18 1    
    20   13   18 1    
    21   12   19 2    
    22    2   20 1    
    23    1   21 1    
    24    3   22 1    
    25    4   23 1    
    26    6   24 1    
    27    8   25 1    
    28    9   26 1    
    29   14   27 1    
    30   14   28 1    
    31   15   29 1    
    32   15   30 1    
    33   16   31 1    
    34   16   32 1    
    35   17   33 1    
    36   17   34 1    
    37   18   35 1    
    38   18   36 1    
@<TRIPOS>SUBSTRUCTURE
     1 ****        2 TEMP              0 ****  ****    0 ROOT 
@<TRIPOS>NORMAL
@<TRIPOS>FF_PBC
FORCE_FIELD_SETUP_FEATURE Force Field Setup information
v1.0  0 0.000000 0.000000 0.000000 0.000000 0.000000 0.000000 NONE 0 0 0 0 1 0 0 0 0 0 0 0 0
