#	Name:			PISM01041.1
#	Creating user name:	malab
#	Creation time:		Tue Jul 02 22:27:52 2019

#	Modifying user name:	malab
#	Modification time:	Tue Jul 02 22:31:37 2019

@<TRIPOS>MOLECULE
PISM01041.1
   60    65     1     1     0
SMALL
GAST_HUCK


@<TRIPOS>ATOM
      1 C1         -0.9790    6.2886   -2.9007 C.3       1 <1>        -0.0166 
      2 C2         -0.3016    5.5746   -4.1072 C.3       1 <1>        -0.0244 
      3 C3         -0.8880    6.0312   -5.4822 C.3       1 <1>         0.0689 
      4 C4         -2.4484    6.0985   -5.4570 C.3       1 <1>         0.0934 
      5 C5         -2.8603    7.1050   -4.3648 C.3       1 <1>         0.0296 
      6 C6         -2.5134    6.2712   -3.1123 C.3       1 <1>         0.1059 
      7 C7         -3.4529    6.8012   -1.9923 C.3       1 <1>         0.0010 
      8 C8         -4.2388    7.9710   -2.6474 C.3       1 <1>         0.0002 
      9 C9         -4.3462    7.4865   -4.1228 C.3       1 <1>         0.0727 
     10 C10        -2.9004    7.1624   -0.5914 C.3       1 <1>        -0.0535 
     11 C11        -4.0885    7.7174    0.2537 C.3       1 <1>        -0.0552 
     12 C12        -4.9281    8.7729   -0.5237 C.3       1 <1>         0.0483 
     13 C13        -5.5344    8.1899   -1.8288 C.3       1 <1>        -0.0453 
     14 O14        -0.3807    7.3312   -5.8364 O.3       1 <1>        -0.3924 
     15 C15        -3.0556    6.3954   -6.8511 C.3       1 <1>        -0.0492 
     16 C16        -2.9453    4.8443   -4.8060 C.2       1 <1>         0.2650 
     17 O17        -2.9452    4.9416   -3.4767 O.3       1 <1>        -0.2699 
     18 O18        -3.3364    3.8591   -5.4080 O.2       1 <1>        -0.3119 
     19 C19        -4.8821    8.5466   -5.0462 C.2       1 <1>         0.2432 
     20 O20        -4.1781    9.1051   -5.8716 O.2       1 <1>        -0.3698 
     21 O21        -6.1771    8.8304   -4.8851 O.3       1 <1>        -0.2269 
     22 C22        -6.6257    9.9328   -5.6903 C.3       1 <1>         0.2413 
     23 C23        -5.9939   11.2203   -5.2088 C.2       1 <1>        -0.0021 
     24 C24        -6.9041   12.0028   -4.6334 C.2       1 <1>         0.0291 
     25 C25        -8.1421   11.2466   -4.7774 C.2       1 <1>         0.2494 
     26 O26        -8.0324   10.0879   -5.4148 O.3       1 <1>        -0.2313 
     27 O27        -9.2106   11.6517   -4.3531 O.2       1 <1>        -0.3691 
     28 C28        -6.7053   13.3536   -4.0025 C.3       1 <1>        -0.0323 
     29 C29        -3.5230    9.3527   -2.4918 C.3       1 <1>        -0.0121 
     30 C30        -3.9642    9.7600   -1.1144 C.2       1 <1>        -0.0328 
     31 O31        -5.9076    9.3690    0.3406 O.3       1 <1>        -0.4347 
     32 C32        -3.5508   10.8627   -0.4811 C.2       1 <1>        -0.0406 
     33 H1         -0.6207    7.3267   -2.8166 H         1 <1>         0.0297 
     34 H2         -0.7267    5.7592   -1.9684 H         1 <1>         0.0297 
     35 H3         -0.4596    4.4879   -4.0006 H         1 <1>         0.0289 
     36 H4          0.7874    5.7413   -4.0778 H         1 <1>         0.0289 
     37 H5         -0.5830    5.3065   -6.2591 H         1 <1>         0.0584 
     38 H6         -2.2748    8.0301   -4.4745 H         1 <1>         0.0352 
     39 H7         -4.1697    5.9822   -1.8040 H         1 <1>         0.0340 
     40 H8         -4.9999    6.6015   -4.1869 H         1 <1>         0.0563 
     41 H9         -2.0942    7.9071   -0.6665 H         1 <1>         0.0260 
     42 H10        -2.4775    6.2692   -0.1022 H         1 <1>         0.0260 
     43 H11        -3.6962    8.1721    1.1778 H         1 <1>         0.0168 
     44 H12        -4.7637    6.8957    0.5421 H         1 <1>         0.0168 
     45 H13        -6.1809    8.9321   -2.3241 H         1 <1>         0.0176 
     46 H14        -6.1283    7.2804   -1.6507 H         1 <1>         0.0176 
     47 H15         0.5666    7.3602   -5.9298 H         1 <1>         0.2096 
     48 H16        -2.7627    5.6103   -7.5643 H         1 <1>         0.0222 
     49 H17        -2.6928    7.3651   -7.2234 H         1 <1>         0.0222 
     50 H18        -4.1541    6.4207   -6.7951 H         1 <1>         0.0222 
     51 H19        -6.4784    9.7627   -6.7707 H         1 <1>         0.1196 
     52 H20        -4.9398   11.4769   -5.3054 H         1 <1>         0.0705 
     53 H21        -7.6729   13.8640   -3.8836 H         1 <1>         0.0347 
     54 H22        -6.0503   13.9738   -4.6326 H         1 <1>         0.0347 
     55 H23        -6.2420   13.2290   -3.0125 H         1 <1>         0.0347 
     56 H24        -3.9183   10.0983   -3.1974 H         1 <1>         0.0432 
     57 H25        -2.4265    9.3288   -2.5687 H         1 <1>         0.0432 
     58 H26        -6.4338   10.0268   -0.1013 H         1 <1>         0.1919 
     59 H27        -3.9144   11.0857    0.5218 H         1 <1>         0.1257 
     60 H28        -2.8488   11.5493   -0.9520 H         1 <1>         0.1257 
@<TRIPOS>BOND
     1    2    1 1    
     2    2    3 1    
     3    3    4 1    
     4    4    5 1    
     5    5    6 1    
     6    1    6 1    
     7    6    7 1    
     8    7    8 1    
     9    8    9 1    
    10    5    9 1    
    11    7   10 1    
    12   10   11 1    
    13   11   12 1    
    14   12   13 1    
    15    8   13 1    
    16    3   14 1    
    17    4   15 1    
    18    4   16 1    
    19   16   17 1    
    20    6   17 1    
    21   16   18 2    
    22    9   19 1    
    23   19   20 2    
    24   19   21 1    
    25   21   22 1    
    26   22   23 1    
    27   23   24 2    
    28   24   25 1    
    29   25   26 1    
    30   22   26 1    
    31   25   27 2    
    32   24   28 1    
    33    8   29 1    
    34   29   30 1    
    35   12   30 1    
    36   12   31 1    
    37   30   32 2    
    38    1   33 1    
    39    1   34 1    
    40    2   35 1    
    41    2   36 1    
    42    3   37 1    
    43    5   38 1    
    44    7   39 1    
    45    9   40 1    
    46   10   41 1    
    47   10   42 1    
    48   11   43 1    
    49   11   44 1    
    50   13   45 1    
    51   13   46 1    
    52   14   47 1    
    53   15   48 1    
    54   15   49 1    
    55   15   50 1    
    56   22   51 1    
    57   23   52 1    
    58   28   53 1    
    59   28   54 1    
    60   28   55 1    
    61   29   56 1    
    62   29   57 1    
    63   31   58 1    
    64   32   59 1    
    65   32   60 1    
@<TRIPOS>SUBSTRUCTURE
     1 ****        2 TEMP              0 ****  ****    0 ROOT 
@<TRIPOS>NORMAL
@<TRIPOS>FF_PBC
FORCE_FIELD_SETUP_FEATURE Force Field Setup information
v1.0  0 0.000000 0.000000 0.000000 0.000000 0.000000 0.000000 NONE 0 0 0 0 1 0 0 0 0 0 0 0 0
