#	Name:			PISM00174
#	Creating user name:	14062
#	Creation time:		Sun Mar 31 16:35:09 2019

#	Modifying user name:	14062
#	Modification time:	Sun Mar 31 16:37:09 2019

@<TRIPOS>MOLECULE
PISM00174
   36    38     1     1     0
SMALL
GAST_HUCK


@<TRIPOS>ATOM
      1 C1         -1.4011    7.8196   -9.8794 C.ar      1 <1>        -0.0479 
      2 C2         -0.5014    6.7493   -9.8897 C.ar      1 <1>        -0.0516 
      3 C3         -0.4330    5.8642   -8.8052 C.ar      1 <1>         0.0165 
      4 C4         -1.2860    6.0739   -7.7145 C.ar      1 <1>        -0.0377 
      5 C5         -2.1898    7.1397   -7.7014 C.ar      1 <1>         0.0538 
      6 C6         -2.2485    8.0172   -8.7871 C.ar      1 <1>         0.0533 
      7 C7          0.5224    4.6867   -8.7610 C.2       1 <1>         0.1301 
      8 C8          1.4342    4.4103   -9.6976 C.2       1 <1>        -0.0403 
      9 C9          2.0746    3.1976   -9.1939 C.2       1 <1>        -0.0411 
     10 C10         1.4353    2.9599   -8.0454 C.2       1 <1>         0.1254 
     11 O11         0.4810    3.8394   -7.7268 O.3       1 <1>        -0.2491 
     12 C12         1.7040    1.8278   -7.1354 C.2       1 <1>        -0.0161 
     13 C13         2.5341    0.8011   -7.3648 C.2       1 <1>        -0.0183 
     14 C14         2.7439   -0.2952   -6.3969 C.2       1 <1>         0.1131 
     15 O15         2.1834   -0.2445   -5.3140 O.2       1 <1>        -0.3989 
     16 C16         3.6096   -1.4526   -6.7044 C.2       1 <1>        -0.0193 
     17 Cl17       -3.2445    7.3678   -6.3205 Cl        1 <1>        -0.0704 
     18 Cl18       -3.3749    9.3594   -8.7874 Cl        1 <1>        -0.0705 
     19 C19         3.7966   -2.4704   -5.8532 C.2       1 <1>        -0.0179 
     20 C20         4.6348   -3.6654   -6.0820 C.2       1 <1>         0.1239 
     21 C21         5.3511   -3.9091   -7.1839 C.2       1 <1>        -0.0463 
     22 C22         5.9777   -5.1988   -6.9055 C.2       1 <1>        -0.0510 
     23 C23         5.5266   -5.4960   -5.6864 C.2       1 <1>         0.0897 
     24 O24         4.7053   -4.6025   -5.1286 O.3       1 <1>        -0.2549 
     25 H1         -1.4447    8.5019  -10.7228 H         1 <1>         0.0620 
     26 H2          0.1353    6.6242  -10.7567 H         1 <1>         0.0618 
     27 H3         -1.2553    5.4061   -6.8599 H         1 <1>         0.0623 
     28 H4          1.6907    4.9161  -10.6259 H         1 <1>         0.0435 
     29 H5          2.8819    2.6522   -9.6787 H         1 <1>         0.0476 
     30 H6          1.1556    1.8546   -6.1937 H         1 <1>         0.0731 
     31 H7          3.0894    0.7428   -8.2982 H         1 <1>         0.0557 
     32 H8          4.1012   -1.4505   -7.6745 H         1 <1>         0.0543 
     33 H9          3.2905   -2.4418   -4.8880 H         1 <1>         0.0733 
     34 H10         5.4723   -3.3253   -8.0944 H         1 <1>         0.0454 
     35 H11         6.6486   -5.7735   -7.5432 H         1 <1>         0.0388 
     36 H12         5.8069   -6.4134   -5.1685 H         1 <1>         0.1076 
@<TRIPOS>BOND
     1    2    1 ar   
     2    2    3 ar   
     3    3    4 ar   
     4    4    5 ar   
     5    5    6 ar   
     6    1    6 ar   
     7    3    7 1    
     8    7    8 2    
     9    8    9 1    
    10    9   10 2    
    11   10   11 1    
    12    7   11 1    
    13   10   12 1    
    14   12   13 2    
    15   13   14 1    
    16   14   15 2    
    17   14   16 1    
    18    5   17 1    
    19    6   18 1    
    20   16   19 2    
    21   19   20 1    
    22   20   21 2    
    23   21   22 1    
    24   22   23 2    
    25   23   24 1    
    26   20   24 1    
    27    1   25 1    
    28    2   26 1    
    29    4   27 1    
    30    8   28 1    
    31    9   29 1    
    32   12   30 1    
    33   13   31 1    
    34   16   32 1    
    35   19   33 1    
    36   21   34 1    
    37   22   35 1    
    38   23   36 1    
@<TRIPOS>SUBSTRUCTURE
     1 ****        2 TEMP              0 ****  ****    0 ROOT 
@<TRIPOS>NORMAL
@<TRIPOS>FF_PBC
FORCE_FIELD_SETUP_FEATURE Force Field Setup information
v1.0  0 0.000000 0.000000 0.000000 0.000000 0.000000 0.000000 NONE 0 0 0 0 1 0 0 0 0 0 0 0 0
