#	Name:			PISM00349
#	Creating user name:	baoopengkun
#	Creation time:		Sun Dec 16 03:29:03 2018

#	Modifying user name:	baoopengkun
#	Modification time:	Sun Dec 16 03:36:18 2018

@<TRIPOS>MOLECULE
PISM00349
   29    30     1     1     0
SMALL
GAST_HUCK


@<TRIPOS>ATOM
      1 Br1       -21.2222   11.7049   43.5022 Br        1 <1>        -0.0471 
      2 H1        -19.9224   10.0258   45.5049 H         1 <1>         0.0672 
      3 H2        -16.6184   12.4238   46.8454 H         1 <1>         0.0669 
      4 H3        -17.2949   14.2251   45.2872 H         1 <1>         0.0651 
      5 C5        -19.7330   11.9608   44.5747 C.ar      1 <1>         0.0424 
      6 C6        -19.3492   10.9458   45.4564 C.ar      1 <1>        -0.0406 
      7 C7        -18.2297   11.1099   46.2763 C.ar      1 <1>         0.0159 
      8 C8        -17.4902   12.2936   46.2119 C.ar      1 <1>        -0.0475 
      9 C9        -17.8740   13.3090   45.3314 C.ar      1 <1>        -0.0294 
     10 C10       -18.9959   13.1495   44.5111 C.ar      1 <1>         0.1209 
     11 Br11      -17.7277    9.7626   47.4444 Br        1 <1>        -0.0491 
     12 S12       -19.4733   14.4676   43.4103 S.o2      1 <1>         0.0726 
     13 O13       -19.6731   13.9174   42.0848 O.2       1 <1>        -0.1493 
     14 O14       -18.5708   15.5879   43.5835 O.2       1 <1>        -0.1493 
     15 N15       -20.9400   14.9083   44.0323 N.am      1 <1>        -0.2331 
     16 C16       -21.9952   15.4452   43.1814 C.3       1 <1>         0.0757 
     17 C17       -23.0243   14.3536   42.8866 C.ar      1 <1>         0.0465 
     18 N18       -23.2037   13.9375   41.6152 N.ar      1 <1>        -0.2964 
     19 C19       -24.0567   12.9385   41.3087 C.ar      1 <1>         0.0028 
     20 C20       -24.8128   12.3232   42.3102 C.ar      1 <1>        -0.0410 
     21 C21       -24.6744   12.7569   43.6310 C.ar      1 <1>        -0.0488 
     22 C22       -23.7738   13.7848   43.9214 C.ar      1 <1>        -0.0308 
     23 H4        -21.1096   14.8311   45.0161 H         1 <1>         0.1704 
     24 H5        -21.5743   15.8020   42.2284 H         1 <1>         0.0668 
     25 H6        -22.5008   16.2939   43.6681 H         1 <1>         0.0668 
     26 H7        -24.1501   12.6175   40.2766 H         1 <1>         0.0803 
     27 H8        -25.4990   11.5191   42.0640 H         1 <1>         0.0652 
     28 H9        -25.2593   12.2992   44.4229 H         1 <1>         0.0719 
     29 H10       -23.6570   14.1347   44.9415 H         1 <1>         0.0652 
@<TRIPOS>BOND
     1    5    1 1    
     2    6    2 1    
     3    8    3 1    
     4    9    4 1    
     5    6    5 ar   
     6   15   23 1    
     7    6    7 ar   
     8    7    8 ar   
     9    8    9 ar   
    10   10    9 ar   
    11    5   10 ar   
    12    7   11 1    
    13   10   12 1    
    14   12   13 2    
    15   12   14 2    
    16   12   15 1    
    17   15   16 1    
    18   16   17 1    
    19   17   18 ar   
    20   18   19 ar   
    21   19   20 ar   
    22   21   20 ar   
    23   22   21 ar   
    24   17   22 ar   
    25   16   24 1    
    26   16   25 1    
    27   19   26 1    
    28   20   27 1    
    29   21   28 1    
    30   22   29 1    
@<TRIPOS>SUBSTRUCTURE
     1 ****        6 TEMP              0 ****  ****    0 ROOT 
@<TRIPOS>NORMAL
@<TRIPOS>FF_PBC
FORCE_FIELD_SETUP_FEATURE Force Field Setup information
v1.0  0 0.000000 0.000000 0.000000 0.000000 0.000000 0.000000 NONE 0 0 0 0 1 0 0 0 0 0 0 0 0
