#	Name:			PISM00483
#	Creating user name:	baoopengkun
#	Creation time:		Wed Feb 27 22:08:35 2019

#	Modifying user name:	baoopengkun
#	Modification time:	Wed Feb 27 22:13:24 2019

@<TRIPOS>MOLECULE
PISM00483
   14    14     1     1     0
SMALL
GAST_HUCK


@<TRIPOS>ATOM
      1 C1         24.6205    4.4795  -10.4571 C.2       1 <1>        -0.0660 
      2 C2         25.8771    5.2924  -10.2042 C.3       1 <1>         0.0045 
      3 C3         25.7468    3.7969  -10.4271 C.2       1 <1>        -0.0660 
      4 C4         26.4882    6.0203  -11.3683 C.2       1 <1>        -0.1235 
      5 C5         25.7807    6.8917  -12.0956 C.2       1 <1>        -0.0936 
      6 C6         26.2157    5.7176   -8.7597 C.3       1 <1>        -0.0957 
      7 H1         23.5386    4.4731  -10.5782 H         1 <1>         0.1113 
      8 H2         26.2462    2.8328  -10.5060 H         1 <1>         0.1113 
      9 H3         27.5335    5.8217  -11.6066 H         1 <1>         0.0370 
     10 H4         24.7367    7.0952  -11.8583 H         1 <1>         0.0836 
     11 H5         26.2341    7.4149  -12.9375 H         1 <1>         0.0836 
     12 H6         27.2968    5.6016   -8.5909 H         1 <1>         0.0045 
     13 H7         25.6688    5.1079   -8.0240 H         1 <1>         0.0045 
     14 H8         25.9408    6.7740   -8.6236 H         1 <1>         0.0045 
@<TRIPOS>BOND
     1    2    1 1    
     2    2    3 1    
     3    1    3 2    
     4    2    4 1    
     5    4    5 2    
     6    2    6 1    
     7    1    7 1    
     8    3    8 1    
     9    4    9 1    
    10    5   10 1    
    11    5   11 1    
    12    6   12 1    
    13    6   13 1    
    14    6   14 1    
@<TRIPOS>SUBSTRUCTURE
     1 ****        2 TEMP              0 ****  ****    0 ROOT 
@<TRIPOS>NORMAL
@<TRIPOS>FF_PBC
FORCE_FIELD_SETUP_FEATURE Force Field Setup information
v1.0  0 0.000000 0.000000 0.000000 0.000000 0.000000 0.000000 NONE 0 0 0 0 1 0 0 0 0 0 0 0 0
