#	Name:			PISM00176
#	Creating user name:	14062
#	Creation time:		Sun Mar 31 15:38:02 2019

#	Modifying user name:	14062
#	Modification time:	Sun Mar 31 16:28:17 2019

@<TRIPOS>MOLECULE
PISM00176
   21    22     1     2     0
SMALL
GAST_HUCK


@<TRIPOS>ATOM
      1 C1         -1.3264    8.2618   -8.8043 C.ar      1 <1>        -0.0483 
      2 C2         -0.3854    7.2759   -9.1170 C.ar      1 <1>        -0.0522 
      3 C3         -0.3490    6.0725   -8.3999 C.ar      1 <1>         0.0150 
      4 C4         -1.2695    5.8819   -7.3618 C.ar      1 <1>        -0.0384 
      5 C5         -2.2094    6.8661   -7.0432 C.ar      1 <1>         0.0534 
      6 C6         -2.2395    8.0610   -7.7666 C.ar      1 <1>         0.0529 
      7 C7          0.6460    4.9668   -8.6973 C.2       1 <1>         0.1287 
      8 C8          1.5105    4.9734   -9.7171 C.2       1 <1>        -0.0434 
      9 C9          2.2264    3.7096   -9.5588 C.2       1 <1>        -0.0388 
     10 C10         1.6633    3.1714   -8.4758 C.2       1 <1>         0.1672 
     11 O11         0.6913    3.8898   -7.9046 O.3       1 <1>        -0.2448 
     12 C12         2.0613    1.8667   -7.9129 C.2       1 <1>         0.1514 
     13 O13         1.5151    1.4121   -6.9203 O.2       1 <1>        -0.3681 
     14 H1         -1.3501    9.1893   -9.3679 H         1 <1>         0.0619 
     15 H2          0.3118    7.4691   -9.9228 H         1 <1>         0.0614 
     16 H3         -1.2648    4.9609   -6.7884 H         1 <1>         0.0619 
     17 Cl17       -3.4112    9.3058   -7.3816 Cl        1 <1>        -0.0709 
     18 H4          1.6897    5.7015  -10.5053 H         1 <1>         0.0413 
     19 H5          3.0267    3.3123  -10.1821 H         1 <1>         0.0465 
     20 H6          2.8557    1.2877   -8.3813 H         1 <1>         0.1335 
     21 Cl21       -3.3452    6.5934   -5.7367 Cl        1 <1>        -0.0705 
@<TRIPOS>BOND
     1    2    1 ar   
     2    2    3 ar   
     3    3    4 ar   
     4    4    5 ar   
     5    1    6 ar   
     6    5    6 ar   
     7    3    7 1    
     8    7    8 2    
     9    8    9 1    
    10   10    9 2    
    11   11   10 1    
    12    7   11 1    
    13   10   12 1    
    14   12   13 2    
    15    1   14 1    
    16    2   15 1    
    17    4   16 1    
    18    6   17 1    
    19    8   18 1    
    20    9   19 1    
    21   12   20 1    
    22    5   21 1    
@<TRIPOS>SUBSTRUCTURE
     1 ****        2 TEMP              0 ****  ****    0 ROOT 
@<TRIPOS>NORMAL
@<TRIPOS>FF_PBC
FORCE_FIELD_SETUP_FEATURE Force Field Setup information
v1.0  0 0.000000 0.000000 0.000000 0.000000 0.000000 0.000000 NONE 0 0 0 0 1 0 0 0 0 0 0 0 0
@<TRIPOS>RENDERING_ATTRS
ANTIALIASED_LINES 
*
