#	Name:			PISM00828
#	Creating user name:	baoopengkun
#	Creation time:		Sat Dec 15 02:58:03 2018

#	Modifying user name:	baoopengkun
#	Modification time:	Sat Dec 15 02:58:31 2018

@<TRIPOS>MOLECULE
PISM00828
   40    41     1     1     0
SMALL
GAST_HUCK


@<TRIPOS>ATOM
      1 Br1         1.5166   21.5176  -51.7689 Br        1 <1>        -0.0600 
      2 C2          1.1959   20.4764  -50.2708 C.ar      1 <1>         0.0012 
      3 C3          0.0869   19.6264  -50.2335 C.ar      1 <1>        -0.0611 
      4 C4         -0.1465   18.8299  -49.1087 C.ar      1 <1>        -0.0298 
      5 C5          0.7459   18.8580  -48.0334 C.ar      1 <1>         0.1009 
      6 C6          1.8293   19.7408  -48.0533 C.ar      1 <1>        -0.0298 
      7 C7          2.0619   20.5411  -49.1755 C.ar      1 <1>        -0.0611 
      8 O8          0.5626   18.0062  -46.9431 O.3       1 <1>        -0.2718 
      9 C9          1.1914   16.7235  -47.1036 C.3       1 <1>         0.2207 
     10 C10         2.6559   16.8885  -47.4245 C.2       1 <1>        -0.0063 
     11 C11         2.9406   16.4467  -48.6518 C.2       1 <1>         0.0225 
     12 C12         1.7006   15.9110  -49.2186 C.2       1 <1>         0.2238 
     13 N13         0.7268   16.0482  -48.3065 N.am      1 <1>        -0.1188 
     14 C14         4.2855   16.4739  -49.3256 C.3       1 <1>        -0.0329 
     15 O15         1.6203   15.4220  -50.3320 O.2       1 <1>        -0.3854 
     16 C16        -0.5507   15.6321  -48.4259 C.2       1 <1>         0.3573 
     17 O17        -0.9895   15.0746  -49.4166 O.2       1 <1>        -0.3680 
     18 O18        -1.2747   15.9004  -47.3292 O.3       1 <1>        -0.2535 
     19 C19        -2.6613   15.4883  -47.3294 C.3       1 <1>         0.0910 
     20 C20        -2.8199   13.9433  -47.4355 C.3       1 <1>        -0.0320 
     21 C21        -3.1645   15.9398  -45.9289 C.3       1 <1>        -0.0320 
     22 C22        -3.5049   16.2203  -48.4136 C.3       1 <1>        -0.0320 
     23 H1         -0.5936   19.5844  -51.0779 H         1 <1>         0.0615 
     24 H2         -1.0205   18.1910  -49.0715 H         1 <1>         0.0549 
     25 H3          2.4900   19.8024  -47.1953 H         1 <1>         0.0549 
     26 H4          2.9144   21.2125  -49.1965 H         1 <1>         0.0615 
     27 H5          1.0512   16.1019  -46.2041 H         1 <1>         0.1160 
     28 H6          3.3816   17.3269  -46.7407 H         1 <1>         0.0695 
     29 H7          4.3357   15.6972  -50.1035 H         1 <1>         0.0348 
     30 H8          5.0880   16.2959  -48.5940 H         1 <1>         0.0348 
     31 H9          4.4347   17.4585  -49.7932 H         1 <1>         0.0348 
     32 H10        -2.5705   13.5642  -48.4360 H         1 <1>         0.0260 
     33 H11        -3.8593   13.6508  -47.2216 H         1 <1>         0.0260 
     34 H12        -2.1599   13.4516  -46.7048 H         1 <1>         0.0260 
     35 H13        -3.0417   17.0282  -45.8146 H         1 <1>         0.0260 
     36 H14        -2.5805   15.4447  -45.1377 H         1 <1>         0.0260 
     37 H15        -4.2273   15.6920  -45.7846 H         1 <1>         0.0260 
     38 H16        -3.2382   15.9096  -49.4330 H         1 <1>         0.0260 
     39 H17        -3.3550   17.3072  -48.3335 H         1 <1>         0.0260 
     40 H18        -4.5747   16.0047  -48.2706 H         1 <1>         0.0260 
@<TRIPOS>BOND
     1    2    1 1    
     2    2    3 ar   
     3    3    4 ar   
     4    4    5 ar   
     5    5    6 ar   
     6    6    7 ar   
     7    2    7 ar   
     8    5    8 1    
     9    8    9 1    
    10    9   10 1    
    11   10   11 2    
    12   11   12 1    
    13   12   13 am   
    14    9   13 1    
    15   11   14 1    
    16   12   15 2    
    17   13   16 am   
    18   16   17 2    
    19   16   18 1    
    20   18   19 1    
    21   19   20 1    
    22   19   21 1    
    23   19   22 1    
    24    3   23 1    
    25    4   24 1    
    26    6   25 1    
    27    7   26 1    
    28    9   27 1    
    29   10   28 1    
    30   14   29 1    
    31   14   30 1    
    32   14   31 1    
    33   20   32 1    
    34   20   33 1    
    35   20   34 1    
    36   21   35 1    
    37   21   36 1    
    38   21   37 1    
    39   22   38 1    
    40   22   39 1    
    41   22   40 1    
@<TRIPOS>SUBSTRUCTURE
     1 ****        2 TEMP              0 ****  ****    0 ROOT 
@<TRIPOS>NORMAL
@<TRIPOS>FF_PBC
FORCE_FIELD_SETUP_FEATURE Force Field Setup information
v1.0  0 0.000000 0.000000 0.000000 0.000000 0.000000 0.000000 NONE 0 0 0 0 1 0 0 0 0 0 0 0 0
