#	Name:			PISM00503
#	Creating user name:	malab
#	Creation time:		Thu Apr 04 12:04:48 2019

#	Modifying user name:	malab
#	Modification time:	Thu Apr 04 12:06:46 2019

@<TRIPOS>MOLECULE
PISM00503
   22    20     1     1     0
SMALL
GAST_HUCK


@<TRIPOS>ATOM
      1 C1         21.1812    7.7573    2.5529 C.2       1 <1>        -0.1125 
      2 C2         20.9942    7.3106    1.3091 C.2       1 <1>        -0.0447 
      3 C3         22.1480    7.1845    0.3387 C.3       1 <1>        -0.0030 
      4 N4         22.2727    8.3767   -0.5627 N.4       1 <1>         0.2499 
      5 C5         21.0136    8.5634   -1.3548 C.3       1 <1>        -0.0402 
      6 C6         22.5241    9.6123    0.2304 C.3       1 <1>        -0.0402 
      7 C7         23.4331    8.1549   -1.4822 C.3       1 <1>        -0.0402 
      8 Br8        24.9453   11.6882    0.4102 Br        0 <0>        -1.0000 
      9 H1         20.3516    7.8686    3.2439 H         1 <1>         0.0292 
     10 H2         22.1769    8.0194    2.9032 H         1 <1>         0.0292 
     11 H3         19.9825    7.0388    0.9805 H         1 <1>         0.0725 
     12 H4         22.0195    6.2535   -0.2486 H         1 <1>         0.0998 
     13 H5         23.0754    7.0609    0.9306 H         1 <1>         0.0998 
     14 H6         21.1217    9.3932   -2.0711 H         1 <1>         0.0778 
     15 H7         20.1547    8.8044   -0.7125 H         1 <1>         0.0778 
     16 H8         20.7640    7.6546   -1.9258 H         1 <1>         0.0778 
     17 H9         23.4175    9.4831    0.8622 H         1 <1>         0.0778 
     18 H10        21.6928    9.8977    0.8927 H         1 <1>         0.0778 
     19 H11        22.6884   10.4660   -0.4514 H         1 <1>         0.0778 
     20 H12        23.2752    7.2736   -2.1261 H         1 <1>         0.0778 
     21 H13        24.3676    7.9948   -0.9151 H         1 <1>         0.0778 
     22 H14        23.6019    9.0198   -2.1406 H         1 <1>         0.0778 
@<TRIPOS>BOND
     1    2    1 2    
     2    2    3 1    
     3    3    4 1    
     4    4    5 1    
     5    4    6 1    
     6    4    7 1    
     7    1    9 1    
     8    1   10 1    
     9    2   11 1    
    10    3   12 1    
    11    3   13 1    
    12    5   14 1    
    13    5   15 1    
    14    5   16 1    
    15    6   17 1    
    16    6   18 1    
    17    6   19 1    
    18    7   20 1    
    19    7   21 1    
    20    7   22 1    
@<TRIPOS>SUBSTRUCTURE
     1 ****        2 TEMP              0 ****  ****    0 ROOT 
@<TRIPOS>NORMAL
@<TRIPOS>FF_PBC
FORCE_FIELD_SETUP_FEATURE Force Field Setup information
v1.0  0 0.000000 0.000000 0.000000 0.000000 0.000000 0.000000 NONE 0 0 0 0 1 0 0 0 0 0 0 0 0
0 0 0 0 0 0
