#	Name:			PISM01070
#	Creating user name:	Qinrunwen
#	Creation time:		Sun Mar 31 14:59:26 2019

#	Modifying user name:	Qinrunwen
#	Modification time:	Sun Mar 31 15:36:13 2019

@<TRIPOS>MOLECULE
PISM01070
   39    42     1     1     0
SMALL
GAST_HUCK


@<TRIPOS>ATOM
      1 C1         14.9800  -16.4305  -23.1732 C.2       1 <1>         0.0270 
      2 C2         15.0443  -16.2594  -21.8364 C.2       1 <1>         0.0985 
      3 C3         13.8980  -17.2700  -23.8223 C.3       1 <1>        -0.0357 
      4 C4         15.9922  -15.7792  -24.0436 C.2       1 <1>         0.1642 
      5 C5         17.0337  -14.9349  -23.4322 C.2       1 <1>         0.1065 
      6 C6         17.1104  -14.7805  -22.1160 C.2       1 <1>         0.0410 
      7 C7         16.1235  -15.4273  -21.2493 C.2       1 <1>         0.1645 
      8 N8         14.1987  -16.7895  -20.9870 N.pl3     1 <1>        -0.3317 
      9 O10        15.9602  -15.9302  -25.2546 O.2       1 <1>        -0.3732 
     10 N11        18.0066  -14.2663  -23.9737 N.pl3     1 <1>        -0.2713 
     11 O12        16.2005  -15.2758  -20.0404 O.2       1 <1>        -0.3732 
     12 C13        20.0046  -14.2598  -25.0167 C.3       1 <1>         0.0485 
     13 H1         14.0004  -17.3142  -24.9166 H         1 <1>         0.0339 
     14 C15        18.8205  -13.5052  -23.0655 C.3       1 <1>         0.1771 
     15 C16        18.2784  -13.9389  -21.6741 C.3       1 <1>         0.0682 
     16 H2         12.9087  -16.8413  -23.6015 H         1 <1>         0.0339 
     17 C18        18.4879  -14.3712  -25.3341 C.3       1 <1>         0.0477 
     18 H3         13.9431  -18.3035  -23.4469 H         1 <1>         0.0339 
     19 O20        18.5614  -12.1220  -23.3405 O.3       1 <1>        -0.3645 
     20 C21        19.3194  -14.7002  -20.8228 C.3       1 <1>         0.0906 
     21 O22        20.4227  -13.7983  -20.6034 O.3       1 <1>        -0.2620 
     22 C23        21.3999  -14.3186  -19.8498 C.2       1 <1>         0.3170 
     23 N24        22.4184  -13.4709  -19.6312 N.am      1 <1>        -0.2763 
     24 O25        21.3673  -15.4527  -19.4026 O.2       1 <1>        -0.3777 
     25 C26        20.2354  -13.9111  -23.5492 C.3       1 <1>         0.0780 
     26 H4         14.3181  -16.6118  -19.9757 H         1 <1>         0.1748 
     27 H5         13.4135  -17.3812  -21.2883 H         1 <1>         0.1748 
     28 H8         20.7318  -13.9220  -25.7715 H         1 <1>         0.0497 
     29 H9         19.7728  -15.9814  -23.7834 H         1 <1>         0.1228 
     30 H10        17.9035  -13.0688  -21.1123 H         1 <1>         0.0486 
     31 H11        18.1328  -13.5246  -25.9411 H         1 <1>         0.0536 
     32 H12        18.2778  -15.3274  -25.8362 H         1 <1>         0.0536 
     33 H13        19.0888  -11.5518  -22.7920 H         1 <1>         0.2127 
     34 H14        19.6479  -15.6113  -21.3480 H         1 <1>         0.0633 
     35 H15        18.8540  -14.9927  -19.8659 H         1 <1>         0.0633 
     36 H16        22.4063  -12.5482  -20.0131 H         1 <1>         0.1831 
     37 H17        23.1878  -13.7785  -19.0736 H         1 <1>         0.1831 
     38 N41        20.5378  -15.2732  -24.0693 N.3       1 <1>        -0.3013 
     39 H19        21.0885  -13.2376  -23.3764 H         1 <1>         0.0529 
@<TRIPOS>BOND
     1    4    1 1    
     2    1    2 2    
     3    4    5 1    
     4    5    6 2    
     5    6    7 1    
     6    2    7 1    
     7    1    3 1    
     8    4    9 2    
     9    5   10 1    
    10    7   11 2    
    11    2    8 1    
    12    6   15 1    
    13   10   14 1    
    14   14   15 1    
    15   12   17 1    
    16   10   17 1    
    17   25   12 1    
    18   14   19 1    
    19   15   20 1    
    20   20   21 1    
    21   21   22 1    
    22   22   23 am   
    23   22   24 2    
    24   14   25 1    
    25    3   13 1    
    26    3   16 1    
    27    3   18 1    
    28    8   26 1    
    29    8   27 1    
    30   12   28 1    
    31   38   12 1    
    32   15   30 1    
    33   17   31 1    
    34   17   32 1    
    35   19   33 1    
    36   20   34 1    
    37   20   35 1    
    38   23   36 1    
    39   23   37 1    
    40   25   38 1    
    41   25   39 1    
    42   38   29 1    
@<TRIPOS>SUBSTRUCTURE
     1 ****        4 TEMP              0 ****  ****    0 ROOT 
@<TRIPOS>NORMAL
@<TRIPOS>FF_PBC
FORCE_FIELD_SETUP_FEATURE Force Field Setup information
v1.0  0 0.000000 0.000000 0.000000 0.000000 0.000000 0.000000 NONE 0 0 0 0 1 0 0 0 0 0 0 0 0
