#	Name:			PISM01157
#	Creating user name:	baoopengkun
#	Creation time:		Tue Dec 18 15:53:32 2018

#	Modifying user name:	baoopengkun
#	Modification time:	Tue Dec 18 15:57:30 2018

@<TRIPOS>MOLECULE
PISM01157
   25    26     1     1     0
SMALL
GAST_HUCK


@<TRIPOS>ATOM
      1 O1          3.4765    6.1174    5.7513 O.2       1 <1>        -0.3688 
      2 C2          3.7773    5.8387    4.6015 C.2       1 <1>         0.2496 
      3 O3          4.2804    4.6489    4.2709 O.3       1 <1>        -0.2915 
      4 C4          3.6033    6.8113    3.4624 C.3       1 <1>         0.1212 
      5 C5          4.9321    7.0170    2.7039 C.3       1 <1>         0.0314 
      6 S6          4.5598    8.4394    1.6439 S.3       1 <1>        -0.1239 
      7 C7          3.4777    9.1928    2.8986 C.3       1 <1>         0.0916 
      8 N8          3.2068    8.1602    3.9211 N.3       1 <1>        -0.2720 
      9 C9          2.2108    9.7482    2.2263 C.ar      1 <1>        -0.0132 
     10 C10         1.7851   11.0572    2.4836 C.ar      1 <1>        -0.0552 
     11 C11         0.6355   11.5629    1.8695 C.ar      1 <1>        -0.0657 
     12 C12        -0.1023   10.7595    0.9963 C.ar      1 <1>        -0.0591 
     13 C13         0.3128    9.4505    0.7387 C.ar      1 <1>         0.0064 
     14 C14         1.4659    8.9502    1.3501 C.ar      1 <1>        -0.0484 
     15 H15         1.7766    7.9344    1.1365 H         1 <1>         0.0584 
     16 H16         0.3148   12.5807    2.0710 H         1 <1>         0.0606 
     17 H1          4.3611    4.0898    5.0361 H         1 <1>         0.2540 
     18 H2          2.8465    6.3948    2.7775 H         1 <1>         0.0729 
     19 H3          5.2340    6.1380    2.1135 H         1 <1>         0.0420 
     20 H4          5.7367    7.2941    3.4028 H         1 <1>         0.0420 
     21 H5          4.0570    9.9938    3.3835 H         1 <1>         0.0742 
     22 H6          2.1790    8.1815    4.2633 H         1 <1>         0.1286 
     23 H7          2.3435   11.6924    3.1638 H         1 <1>         0.0581 
     24 H8         -0.9953   11.1509    0.5196 H         1 <1>         0.0585 
     25 Br25       -0.6649    8.3780   -0.4129 Br        1 <1>        -0.0517 
@<TRIPOS>BOND
     1    2    1 2    
     2    2    3 1    
     3    2    4 1    
     4    4    5 1    
     5    5    6 1    
     6    6    7 1    
     7    7    8 1    
     8    4    8 1    
     9    7    9 1    
    10    9   10 ar   
    11   10   11 ar   
    12   11   12 ar   
    13   12   13 ar   
    14   13   14 ar   
    15    9   14 ar   
    16   14   15 1    
    17   11   16 1    
    18    3   17 1    
    19    4   18 1    
    20    5   19 1    
    21    5   20 1    
    22    7   21 1    
    23    8   22 1    
    24   10   23 1    
    25   12   24 1    
    26   13   25 1    
@<TRIPOS>SUBSTRUCTURE
     1 ****        2 TEMP              0 ****  ****    0 ROOT 
@<TRIPOS>NORMAL
@<TRIPOS>FF_PBC
FORCE_FIELD_SETUP_FEATURE Force Field Setup information
v1.0  0 0.000000 0.000000 0.000000 0.000000 0.000000 0.000000 NONE 0 0 0 0 1 0 0 0 0 0 0 0 0
