#	Name:			PISM00369
#	Creating user name:	malab
#	Creation time:		Tue Apr 02 20:32:38 2019

#	Modifying user name:	malab
#	Modification time:	Tue Apr 02 20:41:50 2019

@<TRIPOS>MOLECULE
PISM00369
   65    67     1     1     0
SMALL
GAST_HUCK


@<TRIPOS>ATOM
      1 N1          6.7333   -0.9009   -7.4124 N.2       1 <1>        -0.1730 
      2 C2          7.3490   -1.1385   -8.5086 C.2       1 <1>         0.0653 
      3 N3          6.4435   -0.5284   -9.4364 N.2       1 <1>        -0.2827 
      4 C4          5.4607   -0.0322   -8.8351 C.2       1 <1>         0.1489 
      5 N5          5.5547   -0.2226   -7.5474 N.pl3     1 <1>        -0.1236 
      6 C6          4.7322    0.1505   -6.5949 C.2       1 <1>         0.1347 
      7 C7          5.1644   -0.2711   -5.1942 C.3       1 <1>         0.1322 
      8 O8          6.5713   -0.0443   -4.9848 O.3       1 <1>        -0.3716 
      9 N9         -1.0389    1.8662   -2.3450 N.2       1 <1>        -0.0916 
     10 N10        -1.7313    2.5284   -1.4039 N.2       1 <1>        -0.2262 
     11 C11         3.6015    0.8429   -6.8270 C.2       1 <1>        -0.0370 
     12 C12         3.0663    2.2866   -4.8136 C.ar      1 <1>        -0.0693 
     13 C13         2.2026    2.6854   -3.7889 C.ar      1 <1>        -0.0312 
     14 C14         0.8891    2.2006   -3.7399 C.ar      1 <1>         0.1107 
     15 C15         0.4749    1.2726   -4.7016 C.ar      1 <1>        -0.0312 
     16 C16         1.3474    0.8489   -5.7080 C.ar      1 <1>        -0.0693 
     17 N17         0.0083    2.5967   -2.7874 N.pl3     1 <1>        -0.1418 
     18 C18         2.6565    1.3356   -5.7528 C.ar      1 <1>        -0.0552 
     19 C19         4.7234   -1.7226   -4.7954 C.3       1 <1>         0.0043 
     20 C20         5.2693   -2.8110   -5.7677 C.3       1 <1>        -0.0552 
     21 C21         5.2445   -2.0364   -3.3600 C.3       1 <1>        -0.0552 
     22 C22         3.1681   -1.8176   -4.7876 C.3       1 <1>        -0.0552 
     23 C23        -1.0157    3.7751   -1.3061 C.2       1 <1>         0.0385 
     24 C24         0.0082    3.7465   -2.1661 C.2       1 <1>         0.0826 
     25 C25        -1.4391    4.8672   -0.3571 C.3       1 <1>        -0.0183 
     26 C26        -0.5328    9.4643    1.7330 C.3       1 <1>        -0.0533 
     27 C27         0.3999   10.7061    1.7464 C.3       1 <1>        -0.0559 
     28 C28        -0.0591   11.7449    2.8025 C.3       1 <1>        -0.0653 
     29 H1          8.2915   -1.6556   -8.6841 H         1 <1>         0.0879 
     30 H2          4.6905    0.4681   -9.4180 H         1 <1>         0.1387 
     31 H3          4.7156    0.3908   -4.4439 H         1 <1>         0.0846 
     32 H4          7.1144   -0.5320   -5.5963 H         1 <1>         0.2141 
     33 H5          3.2566    1.1153   -7.8201 H         1 <1>         0.0306 
     34 H6          4.0596    2.7205   -4.8800 H         1 <1>         0.0534 
     35 H7          2.5745    3.3673   -3.0333 H         1 <1>         0.0577 
     36 H8         -0.5355    0.8782   -4.6706 H         1 <1>         0.0577 
     37 H9          1.0053    0.1399   -6.4553 H         1 <1>         0.0534 
     38 H10         4.9236   -3.8088   -5.4567 H         1 <1>         0.0238 
     39 H11         6.3686   -2.8315   -5.7718 H         1 <1>         0.0238 
     40 H12         4.9111   -2.6413   -6.7937 H         1 <1>         0.0238 
     41 H13         4.9284   -3.0408   -3.0387 H         1 <1>         0.0238 
     42 H14         4.8545   -1.3077   -2.6329 H         1 <1>         0.0238 
     43 H15         6.3441   -2.0002   -3.3284 H         1 <1>         0.0238 
     44 H16         2.7665   -1.6570   -5.7985 H         1 <1>         0.0238 
     45 H17         2.7301   -1.0694   -4.1095 H         1 <1>         0.0238 
     46 C46        -0.5157    6.1151   -0.3564 C.3       1 <1>        -0.0461 
     47 H18         2.8389   -2.8123   -4.4499 H         1 <1>         0.0238 
     48 H19         0.7078    4.5672   -2.3087 H         1 <1>         0.0901 
     49 H20        -1.4632    4.4278    0.6523 H         1 <1>         0.0382 
     50 C50        -0.9962    7.1729    0.6748 C.3       1 <1>        -0.0517 
     51 H21        -2.4644    5.1644   -0.6281 H         1 <1>         0.0382 
     52 C52        -0.0674    8.4180    0.6835 C.3       1 <1>        -0.0530 
     53 H22        -0.5341    9.0013    2.7336 H         1 <1>         0.0265 
     54 H23        -1.5617    9.7839    1.4990 H         1 <1>         0.0265 
     55 H24         0.3987   11.1794    0.7503 H         1 <1>         0.0263 
     56 H25         1.4314   10.3911    1.9772 H         1 <1>         0.0263 
     57 H26        -1.0812   12.0907    2.5826 H         1 <1>         0.0230 
     58 H27         0.6147   12.6162    2.7953 H         1 <1>         0.0230 
     59 H28        -0.0454   11.3005    3.8101 H         1 <1>         0.0230 
     60 H29        -0.5103    6.5668   -1.3622 H         1 <1>         0.0282 
     61 H30         0.5115    5.8056   -0.1020 H         1 <1>         0.0282 
     62 H31        -1.0071    6.7213    1.6805 H         1 <1>         0.0267 
     63 H32        -2.0238    7.4859    0.4261 H         1 <1>         0.0267 
     64 H33        -0.0667    8.8799   -0.3176 H         1 <1>         0.0265 
     65 H34         0.9625    8.1024    0.9187 H         1 <1>         0.0265 
@<TRIPOS>BOND
     1    2    1 2    
     2    2    3 1    
     3    3    4 2    
     4    4    5 1    
     5    1    5 1    
     6    5    6 1    
     7    6    7 1    
     8    7    8 1    
     9   17    9 1    
    10    9   10 2    
    11   10   23 1    
    12    6   11 2    
    13   18   12 ar   
    14   12   13 ar   
    15   13   14 ar   
    16   15   14 ar   
    17   16   15 ar   
    18   18   16 ar   
    19   11   18 1    
    20   14   17 1    
    21    7   19 1    
    22   19   20 1    
    23   19   21 1    
    24   19   22 1    
    25   24   23 2    
    26   17   24 1    
    27   23   25 1    
    28   52   26 1    
    29   26   27 1    
    30   27   28 1    
    31    2   29 1    
    32    4   30 1    
    33    7   31 1    
    34    8   32 1    
    35   11   33 1    
    36   12   34 1    
    37   13   35 1    
    38   15   36 1    
    39   16   37 1    
    40   20   38 1    
    41   20   39 1    
    42   20   40 1    
    43   21   41 1    
    44   21   42 1    
    45   21   43 1    
    46   22   44 1    
    47   22   45 1    
    48   25   46 1    
    49   22   47 1    
    50   24   48 1    
    51   25   49 1    
    52   46   50 1    
    53   25   51 1    
    54   50   52 1    
    55   26   53 1    
    56   26   54 1    
    57   27   55 1    
    58   27   56 1    
    59   28   57 1    
    60   28   58 1    
    61   28   59 1    
    62   46   60 1    
    63   46   61 1    
    64   50   62 1    
    65   50   63 1    
    66   52   64 1    
    67   52   65 1    
@<TRIPOS>SUBSTRUCTURE
     1 ****        2 TEMP              0 ****  ****    0 ROOT 
@<TRIPOS>NORMAL
@<TRIPOS>FF_PBC
FORCE_FIELD_SETUP_FEATURE Force Field Setup information
v1.0  0 0.000000 0.000000 0.000000 0.000000 0.000000 0.000000 NONE 0 0 0 0 1 0 0 0 0 0 0 0 0
