#	Name:			PISM00833
#	Creating user name:	baoopengkun
#	Creation time:		Fri Nov 30 18:47:00 2018

#	Modifying user name:	baoopengkun
#	Modification time:	Fri Nov 30 18:50:18 2018

@<TRIPOS>MOLECULE
PISM00833
   33    34     1     2     0
SMALL
GAST_HUCK


@<TRIPOS>ATOM
      1 C1        -17.9094    2.5590   15.0869 C.ar      1 <1>        -0.0689 
      2 C2        -16.6678    2.4908   15.7259 C.ar      1 <1>        -0.0644 
      3 C3        -15.5674    1.9161   15.0792 C.ar      1 <1>        -0.0383 
      4 C4        -15.7265    1.4099   13.7836 C.ar      1 <1>        -0.0644 
      5 C5        -16.9724    1.4554   13.1512 C.ar      1 <1>        -0.0689 
      6 C6        -18.0651    2.0352   13.8009 C.ar      1 <1>        -0.0687 
      7 C7        -14.2160    1.8456   15.7629 C.2       1 <1>        -0.0129 
      8 C8        -13.6650    3.0952   16.4213 C.3       1 <1>         0.0146 
      9 N9        -13.6103    4.2005   15.4391 N.3       1 <1>        -0.3240 
     10 C10       -13.5405    0.6865   15.7666 C.2       1 <1>         0.0663 
     11 O11       -14.0781   -0.3990   15.1899 O.3       1 <1>        -0.2779 
     12 C12       -13.2528   -1.5715   15.2726 C.3       1 <1>         0.2369 
     13 O13       -11.9784   -1.3317   14.6402 O.3       1 <1>        -0.2307 
     14 C14       -11.9571   -2.1323   13.5820 C.2       1 <1>         0.2495 
     15 C15       -13.1324   -2.9791   13.4113 C.2       1 <1>         0.0292 
     16 C16       -13.9097   -2.6435   14.4389 C.2       1 <1>        -0.0012 
     17 C17       -13.4057   -3.9887   12.3302 C.3       1 <1>        -0.0323 
     18 O18       -11.0113   -2.1578   12.8135 O.2       1 <1>        -0.3691 
     19 H1        -18.7547    3.0176   15.5909 H         1 <1>         0.0599 
     20 H2        -16.5713    2.8837   16.7315 H         1 <1>         0.0560 
     21 H3        -14.8791    0.9844   13.2556 H         1 <1>         0.0560 
     22 H4        -17.0905    1.0425   12.1541 H         1 <1>         0.0599 
     23 H5        -19.0315    2.0787   13.3079 H         1 <1>         0.0559 
     24 H6        -12.6425    2.9325   16.7995 H         1 <1>         0.0514 
     25 H7        -14.2917    3.3702   17.2845 H         1 <1>         0.0514 
     26 H8        -13.1785    5.0890   15.8820 H         1 <1>         0.1199 
     27 H9        -14.5975    4.4338   15.0627 H         1 <1>         0.1199 
     28 H10       -12.5605    0.6468   16.2475 H         1 <1>         0.0991 
     29 H11       -13.1175   -1.9132   16.3127 H         1 <1>         0.1208 
     30 H12       -14.8884   -3.0733   14.6483 H         1 <1>         0.0706 
     31 H13       -12.6260   -3.9394   11.5552 H         1 <1>         0.0347 
     32 H14       -14.3823   -3.7843   11.8664 H         1 <1>         0.0347 
     33 H15       -13.4159   -4.9999   12.7634 H         1 <1>         0.0347 
@<TRIPOS>BOND
     1    2    1 ar   
     2    2    3 ar   
     3    3    4 ar   
     4    4    5 ar   
     5    5    6 ar   
     6    1    6 ar   
     7    3    7 1    
     8    7    8 1    
     9    8    9 1    
    10    7   10 2    
    11   10   11 1    
    12   11   12 1    
    13   12   13 1    
    14   13   14 1    
    15   14   15 1    
    16   15   16 2    
    17   12   16 1    
    18   15   17 1    
    19   14   18 2    
    20    1   19 1    
    21    2   20 1    
    22    4   21 1    
    23    5   22 1    
    24    6   23 1    
    25    8   24 1    
    26    8   25 1    
    27    9   26 1    
    28    9   27 1    
    29   10   28 1    
    30   12   29 1    
    31   16   30 1    
    32   17   31 1    
    33   17   32 1    
    34   17   33 1    
@<TRIPOS>SUBSTRUCTURE
     1 ****        2 TEMP              0 ****  ****    0 ROOT 
@<TRIPOS>NORMAL
@<TRIPOS>FF_PBC
FORCE_FIELD_SETUP_FEATURE Force Field Setup information
v1.0  0 0.000000 0.000000 0.000000 0.000000 0.000000 0.000000 NONE 0 0 0 0 1 0 0 0 0 0 0 0 0
@<TRIPOS>RENDERING_ATTRS
ANTIALIASED_LINES 
*
