#	Name:			PISM00816
#	Creating user name:	baoopengkun
#	Creation time:		Wed Feb 27 15:09:04 2019

#	Modifying user name:	baoopengkun
#	Modification time:	Wed Feb 27 15:10:08 2019

@<TRIPOS>MOLECULE
PISM00816
   34    35     1     2     0
SMALL
GAST_HUCK


@<TRIPOS>ATOM
      1 C1         -0.5235   -3.5458    4.8583 C.ar      1 <1>        -0.0646 
      2 C2         -1.0517   -4.8159    5.1074 C.ar      1 <1>        -0.0689 
      3 C3         -1.6550   -5.5366    4.0730 C.ar      1 <1>        -0.0551 
      4 C4         -1.7417   -4.9792    2.7947 C.ar      1 <1>         0.0330 
      5 C5         -1.2328   -3.7006    2.5530 C.ar      1 <1>        -0.0508 
      6 C6         -0.5994   -2.9879    3.5776 C.ar      1 <1>        -0.0282 
      7 Cl7        -2.4913   -5.8819    1.4938 Cl        1 <1>        -0.0727 
      8 C8          0.0021   -1.6198    3.3324 C.2       1 <1>         0.0835 
      9 C9         -0.1831   -0.5249    4.3108 C.2       1 <1>         0.2398 
     10 O10        -1.3811   -0.1655    4.8066 O.3       1 <1>        -0.2865 
     11 C11        -2.5402   -0.8382    4.2769 C.3       1 <1>         0.0638 
     12 O12         0.8015    0.1017    4.6633 O.2       1 <1>        -0.3770 
     13 C13         0.7389   -1.3842    2.2391 C.2       1 <1>         0.1066 
     14 O14         0.9573   -2.3690    1.3546 O.3       1 <1>        -0.2489 
     15 C15         1.7777   -1.9756    0.2431 C.3       1 <1>         0.2459 
     16 C16         1.7865   -3.1137   -0.7476 C.2       1 <1>         0.0005 
     17 C17         1.2101   -2.7437   -1.8896 C.2       1 <1>         0.0294 
     18 C18         0.8387   -1.3536   -1.6492 C.2       1 <1>         0.2497 
     19 O19         1.1625   -0.8736   -0.4549 O.3       1 <1>        -0.2292 
     20 C20         1.0036   -3.5603   -3.1359 C.3       1 <1>        -0.0323 
     21 O21         0.2740   -0.6701   -2.4854 O.2       1 <1>        -0.3691 
     22 H1         -0.0506   -2.9935    5.6646 H         1 <1>         0.0555 
     23 H2         -0.9921   -5.2429    6.1038 H         1 <1>         0.0598 
     24 H24        -2.0565   -6.5272    4.2603 H         1 <1>         0.0562 
     25 H4         -1.3438   -3.2666    1.5653 H         1 <1>         0.0560 
     26 H5         -3.4165   -0.2937    4.6581 H         1 <1>         0.0574 
     27 H6         -2.6244   -1.8736    4.6349 H         1 <1>         0.0574 
     28 H7         -2.5764   -0.8095    3.1763 H         1 <1>         0.0574 
     29 H8          1.1490   -0.3783    2.1096 H         1 <1>         0.1337 
     30 H9          2.8060   -1.7211    0.5518 H         1 <1>         0.1227 
     31 H10         2.2016   -4.1012   -0.5485 H         1 <1>         0.0707 
     32 H11         1.9084   -4.1449   -3.3606 H         1 <1>         0.0347 
     33 H12         0.7848   -2.9018   -3.9898 H         1 <1>         0.0347 
     34 H13         0.1572   -4.2471   -2.9874 H         1 <1>         0.0347 
@<TRIPOS>BOND
     1    2    1 ar   
     2    2    3 ar   
     3    3    4 ar   
     4    4    5 ar   
     5    5    6 ar   
     6    1    6 ar   
     7    4    7 1    
     8    6    8 1    
     9    8    9 1    
    10    9   10 1    
    11   10   11 1    
    12    9   12 2    
    13    8   13 2    
    14   13   14 1    
    15   14   15 1    
    16   15   16 1    
    17   16   17 2    
    18   17   18 1    
    19   18   19 1    
    20   15   19 1    
    21   17   20 1    
    22   18   21 2    
    23    1   22 1    
    24    2   23 1    
    25    3   24 1    
    26    5   25 1    
    27   11   26 1    
    28   11   27 1    
    29   11   28 1    
    30   13   29 1    
    31   15   30 1    
    32   16   31 1    
    33   20   32 1    
    34   20   33 1    
    35   20   34 1    
@<TRIPOS>SUBSTRUCTURE
     1 ****        2 TEMP              0 ****  ****    0 ROOT 
@<TRIPOS>NORMAL
@<TRIPOS>FF_PBC
FORCE_FIELD_SETUP_FEATURE Force Field Setup information
v1.0  0 0.000000 0.000000 0.000000 0.000000 0.000000 0.000000 NONE 0 0 0 0 1 0 0 0 0 0 0 0 0
@<TRIPOS>RENDERING_ATTRS
ANTIALIASED_LINES 
*
