#	Name:			PISM00986
#	Creating user name:	baoopengkun
#	Creation time:		Fri Jan 11 22:03:25 2019

#	Modifying user name:	baoopengkun
#	Modification time:	Fri Jan 11 22:04:49 2019

@<TRIPOS>MOLECULE
PISM00986
   45    48     1     1     0
SMALL
GAST_HUCK


@<TRIPOS>ATOM
      1 C1         -0.0872    0.8622   -6.6310 C.ar      1 <1>        -0.0371 
      2 C2         -1.1558   -0.0421   -6.6821 C.ar      1 <1>        -0.0523 
      3 C3         -1.2085   -1.0467   -7.6612 C.ar      1 <1>        -0.0523 
      4 C4         -0.1951   -1.1761   -8.6203 C.ar      1 <1>        -0.0371 
      5 C5          0.8602   -0.2664   -8.5618 C.ar      1 <1>         0.0734 
      6 C6          0.9136    0.7246   -7.5923 C.ar      1 <1>         0.0734 
      7 C7          2.1870    1.4876   -7.8602 C.2       1 <1>         0.2419 
      8 O8          2.5597    2.4433   -7.2018 O.2       1 <1>        -0.3668 
      9 N9          2.8210    0.9528   -8.9235 N.am      1 <1>        -0.1730 
     10 C10         2.1001   -0.0821   -9.4008 C.2       1 <1>         0.2419 
     11 O11         2.3816   -0.7769  -10.3621 O.2       1 <1>        -0.3668 
     12 C12         4.0592    1.4537   -9.5036 C.3       1 <1>         0.0857 
     13 C13         3.8150    2.5210  -10.5812 C.ar      1 <1>        -0.0351 
     14 C14         2.5283    2.9643  -10.8969 C.ar      1 <1>        -0.0704 
     15 C15         2.3500    3.8959  -11.9218 C.ar      1 <1>        -0.0644 
     16 C16         3.4663    4.4283  -12.5762 C.ar      1 <1>        -0.0507 
     17 C17         4.7803    4.0956  -12.2034 C.ar      1 <1>         0.0264 
     18 C18         4.9123    3.0590  -11.2632 C.ar      1 <1>        -0.0482 
     19 C19         0.9376    4.3348  -12.3315 C.3       1 <1>        -0.0356 
     20 N20         5.8721    4.7361  -12.7337 N.pl3     1 <1>        -0.3071 
     21 C21         7.2345    4.3557  -12.3292 C.3       1 <1>         0.0500 
     22 C22         8.3929    5.2603  -12.8250 C.3       1 <1>         0.0673 
     23 O23         8.1459    5.7149  -14.1622 O.3       1 <1>        -0.3759 
     24 C24         6.9809    6.5501  -14.1989 C.3       1 <1>         0.0673 
     25 C25         5.7107    5.7621  -13.7775 C.3       1 <1>         0.0500 
     26 H1         -0.0320    1.6414   -5.8772 H         1 <1>         0.0682 
     27 H2         -1.9556    0.0370   -5.9516 H         1 <1>         0.0662 
     28 H3         -2.0476   -1.7354   -7.6772 H         1 <1>         0.0662 
     29 H4         -0.2223   -1.9494   -9.3807 H         1 <1>         0.0682 
     30 H5          4.6179    0.6198   -9.9575 H         1 <1>         0.0732 
     31 H6          4.6880    1.8982   -8.7161 H         1 <1>         0.0732 
     32 H7          1.6656    2.5914  -10.3584 H         1 <1>         0.0388 
     33 H8          3.2595    5.1066  -13.3919 H         1 <1>         0.0396 
     34 H9          5.8739    2.6229  -11.0298 H         1 <1>         0.0397 
     35 H10         0.8711    4.4517  -13.4239 H         1 <1>         0.0388 
     36 H11         0.7172    5.3003  -11.8521 H         1 <1>         0.0388 
     37 H12         0.1812    3.5993  -12.0190 H         1 <1>         0.0388 
     38 H13         7.4070    3.3492  -12.7446 H         1 <1>         0.0536 
     39 H14         7.3323    4.3253  -11.2315 H         1 <1>         0.0536 
     40 H15         9.3394    4.6957  -12.8259 H         1 <1>         0.0579 
     41 H16         8.5300    6.1223  -12.1499 H         1 <1>         0.0579 
     42 H17         6.8674    6.9309  -15.2270 H         1 <1>         0.0579 
     43 H18         7.1314    7.4268  -13.5453 H         1 <1>         0.0579 
     44 H19         5.3391    5.2315  -14.6700 H         1 <1>         0.0536 
     45 H20         4.9806    6.5304  -13.4746 H         1 <1>         0.0536 
@<TRIPOS>BOND
     1    2    1 ar   
     2    2    3 ar   
     3    3    4 ar   
     4    4    5 ar   
     5    5    6 ar   
     6    1    6 ar   
     7    6    7 1    
     8    7    8 2    
     9    7    9 am   
    10    9   10 am   
    11   10   11 2    
    12    5   10 1    
    13    9   12 1    
    14   12   13 1    
    15   13   14 ar   
    16   14   15 ar   
    17   15   16 ar   
    18   16   17 ar   
    19   17   18 ar   
    20   13   18 ar   
    21   15   19 1    
    22   17   20 1    
    23   20   21 1    
    24   21   22 1    
    25   22   23 1    
    26   23   24 1    
    27   24   25 1    
    28   20   25 1    
    29    1   26 1    
    30    2   27 1    
    31    3   28 1    
    32    4   29 1    
    33   12   30 1    
    34   12   31 1    
    35   14   32 1    
    36   16   33 1    
    37   18   34 1    
    38   19   35 1    
    39   19   36 1    
    40   19   37 1    
    41   21   38 1    
    42   21   39 1    
    43   22   40 1    
    44   22   41 1    
    45   24   42 1    
    46   24   43 1    
    47   25   44 1    
    48   25   45 1    
@<TRIPOS>SUBSTRUCTURE
     1 ****        2 TEMP              0 ****  ****    0 ROOT 
@<TRIPOS>NORMAL
@<TRIPOS>FF_PBC
FORCE_FIELD_SETUP_FEATURE Force Field Setup information
v1.0  0 0.000000 0.000000 0.000000 0.000000 0.000000 0.000000 NONE 0 0 0 0 1 0 0 0 0 0 0 0 0
