#	Name:			PISM00472
#	Creating user name:	baoopengkun
#	Creation time:		Wed Feb 27 22:05:56 2019

#	Modifying user name:	baoopengkun
#	Modification time:	Wed Feb 27 22:07:58 2019

@<TRIPOS>MOLECULE
PISM00472
   51    53     1     1     0
SMALL
GAST_HUCK


@<TRIPOS>ATOM
      1 C1         27.6779   -2.3868  -10.1201 C.2       1 <1>        -0.0931 
      2 C2         26.8163   -1.3463  -10.6954 C.2       1 <1>        -0.0801 
      3 C3         26.2450   -0.5768   -9.7641 C.2       1 <1>         0.0317 
      4 S4         26.7317   -1.0126   -8.1033 S.3       1 <1>        -0.0427 
      5 C5         27.7137   -2.3301   -8.7871 C.2       1 <1>        -0.0195 
      6 C6         25.2716    0.5427  -10.0683 C.3       1 <1>         0.0806 
      7 C7         25.7528    1.8591   -9.3676 C.3       1 <1>         0.0728 
      8 C8         25.2444    1.9051   -7.8876 C.3       1 <1>        -0.0364 
      9 N9         25.3401    3.0578  -10.1147 N.am      1 <1>        -0.2718 
     10 C10        25.5112    4.3085   -9.6184 C.2       1 <1>         0.1569 
     11 S11        26.7852    4.5031   -8.4874 S.2       1 <1>        -0.2858 
     12 N12        24.6902    5.2403  -10.0561 N.pl3     1 <1>        -0.2411 
     13 C13        24.5972    6.5390   -9.6555 C.ar      1 <1>         0.0962 
     14 C14        25.1596    7.0853   -8.4906 C.ar      1 <1>        -0.0466 
     15 C15        25.2237    8.4671   -8.3014 C.ar      1 <1>        -0.0828 
     16 C16        24.5653    9.3270   -9.1818 C.ar      1 <1>        -0.0824 
     17 C17        23.8331    8.7852  -10.2374 C.ar      1 <1>        -0.0420 
     18 C18        23.8314    7.4055  -10.4536 C.ar      1 <1>         0.1242 
     19 O19        23.0363    6.8843  -11.4757 O.3       1 <1>        -0.2304 
     20 C20        21.7763    6.3951  -10.9847 C.3       1 <1>         0.5443 
     21 F21        21.9981    5.2812  -10.2344 F         1 <1>        -0.1403 
     22 F22        20.9824    6.0644  -12.0372 F         1 <1>        -0.1403 
     23 F23        21.1500    7.3381  -10.2287 F         1 <1>        -0.1403 
     24 N24        23.8531    0.1480   -9.8177 N.3       1 <1>        -0.2803 
     25 C25        23.5172   -1.1535   -9.1847 C.3       1 <1>         0.0251 
     26 C26        22.1495   -1.6583   -9.7036 C.3       1 <1>         0.0606 
     27 O27        21.1336   -0.6597   -9.5029 O.3       1 <1>        -0.3772 
     28 C28        21.4289    0.5472  -10.2266 C.3       1 <1>         0.0606 
     29 C29        22.7635    1.1521   -9.7318 C.3       1 <1>         0.0251 
     30 H1         28.2144   -3.1168  -10.7273 H         1 <1>         0.0371 
     31 H2         26.6654   -1.2423  -11.7695 H         1 <1>         0.0277 
     32 H3         28.2871   -3.0199   -8.1694 H         1 <1>         0.0598 
     33 H4         25.3205    0.6926  -11.1571 H         1 <1>         0.0677 
     34 H5         26.8575    1.8490   -9.3726 H         1 <1>         0.0620 
     35 H6         24.7690    0.9677   -7.5655 H         1 <1>         0.0256 
     36 H7         24.5010    2.7090   -7.7601 H         1 <1>         0.0256 
     37 H8         26.0693    2.0971   -7.1829 H         1 <1>         0.0256 
     38 H9         24.8971    2.9312  -10.9993 H         1 <1>         0.1999 
     39 H10        24.0034    4.9542  -10.7693 H         1 <1>         0.2151 
     40 H11        25.5328    6.4787   -7.6821 H         1 <1>         0.0501 
     41 H12        25.7766    8.8732   -7.4598 H         1 <1>         0.0494 
     42 H13        24.6143   10.4023   -9.0380 H         1 <1>         0.0491 
     43 H14        23.2584    9.4346  -10.8910 H         1 <1>         0.0507 
     44 H15        23.4716   -1.0419   -8.0896 H         1 <1>         0.0451 
     45 H16        24.2405   -1.9450   -9.4287 H         1 <1>         0.0451 
     46 H17        21.8485   -2.5648   -9.1533 H         1 <1>         0.0572 
     47 H18        22.2323   -1.9191  -10.7734 H         1 <1>         0.0572 
     48 H19        20.6057    1.2621  -10.0586 H         1 <1>         0.0572 
     49 H20        21.4895    0.3426  -11.3092 H         1 <1>         0.0572 
     50 H21        22.6223    1.4975   -8.6952 H         1 <1>         0.0451 
     51 H22        22.9580    2.0221  -10.3684 H         1 <1>         0.0451 
@<TRIPOS>BOND
     1    2    1 1    
     2    2    3 2    
     3    3    4 1    
     4    4    5 1    
     5    1    5 2    
     6    3    6 1    
     7    6    7 1    
     8    7    8 1    
     9    7    9 1    
    10    9   10 am   
    11   10   11 2    
    12   10   12 1    
    13   12   13 1    
    14   13   14 ar   
    15   14   15 ar   
    16   15   16 ar   
    17   16   17 ar   
    18   17   18 ar   
    19   13   18 ar   
    20   18   19 1    
    21   19   20 1    
    22   20   21 1    
    23   20   22 1    
    24   20   23 1    
    25    6   24 1    
    26   24   25 1    
    27   25   26 1    
    28   26   27 1    
    29   27   28 1    
    30   28   29 1    
    31   24   29 1    
    32    1   30 1    
    33    2   31 1    
    34    5   32 1    
    35    6   33 1    
    36    7   34 1    
    37    8   35 1    
    38    8   36 1    
    39    8   37 1    
    40    9   38 1    
    41   12   39 1    
    42   14   40 1    
    43   15   41 1    
    44   16   42 1    
    45   17   43 1    
    46   25   44 1    
    47   25   45 1    
    48   26   46 1    
    49   26   47 1    
    50   28   48 1    
    51   28   49 1    
    52   29   50 1    
    53   29   51 1    
@<TRIPOS>SUBSTRUCTURE
     1 ****        2 TEMP              0 ****  ****    0 ROOT 
@<TRIPOS>NORMAL
@<TRIPOS>FF_PBC
FORCE_FIELD_SETUP_FEATURE Force Field Setup information
v1.0  0 0.000000 0.000000 0.000000 0.000000 0.000000 0.000000 NONE 0 0 0 0 1 0 0 0 0 0 0 0 0
