#	Name:			PISM00613
#	Creating user name:	baoopengkun
#	Creation time:		Mon Dec 10 10:32:41 2018

#	Modifying user name:	baoopengkun
#	Modification time:	Mon Dec 10 10:32:53 2018

@<TRIPOS>MOLECULE
PISM00613
   44    47     1     2     0
SMALL
GAST_HUCK


@<TRIPOS>ATOM
      1 C1          3.4871    9.4468   -6.6827 C.ar      1 <1>        -0.0348 
      2 C2          2.5414    9.8291   -5.7268 C.ar      1 <1>        -0.0180 
      3 C3          2.1015    8.9098   -4.7703 C.ar      1 <1>         0.0714 
      4 C4          2.6157    7.6104   -4.7634 C.ar      1 <1>        -0.0180 
      5 C5          3.5636    7.2300   -5.7175 C.ar      1 <1>        -0.0348 
      6 C6          3.9883    8.1410   -6.6908 C.ar      1 <1>         0.0068 
      7 C7          5.0008    7.6978   -7.7560 C.3       1 <1>         0.1921 
      8 C8          6.4353    7.8566   -7.1933 C.3       1 <1>         0.1073 
      9 N9          7.5159    7.4210   -8.0686 N.pl3     1 <1>        -0.1814 
     10 N10         8.8420    7.4131   -7.7536 N.2       1 <1>        -0.1908 
     11 C11         9.5849    6.9737   -8.7002 C.2       1 <1>         0.0618 
     12 N12         8.5972    6.6816   -9.7017 N.2       1 <1>        -0.2870 
     13 C13         7.4473    6.9565   -9.2798 C.2       1 <1>         0.1270 
     14 O14         4.8353    8.3911   -8.9996 O.3       1 <1>        -0.3814 
     15 C15         3.6609    7.8569   -9.6192 C.3       1 <1>         0.0672 
     16 C16         3.6724    6.3826   -9.1381 C.3       1 <1>         0.1002 
     17 O17         4.7322    6.3523   -8.1670 O.3       1 <1>        -0.3758 
     18 C18         2.3077    5.9243   -8.5604 C.3       1 <1>         0.0969 
     19 O19         2.4354    4.5956   -8.0244 O.3       1 <1>        -0.3152 
     20 C20         1.2804    4.1059   -7.4118 C.ar      1 <1>         0.1247 
     21 C21         1.2235    4.0221   -6.0181 C.ar      1 <1>        -0.0346 
     22 C22         0.0679    3.5504   -5.3884 C.ar      1 <1>        -0.0747 
     23 C23        -1.0307    3.1520   -6.1556 C.ar      1 <1>        -0.0748 
     24 C24        -0.9705    3.2244   -7.5506 C.ar      1 <1>        -0.0368 
     25 C25         0.1833    3.6998   -8.1796 C.ar      1 <1>         0.1595 
     26 Cl26        0.9070    9.3857   -3.5807 Cl        1 <1>        -0.0420 
     27 H1          3.8325   10.1662   -7.4191 H         1 <1>         0.0849 
     28 H2          2.1472   10.8404   -5.7251 H         1 <1>         0.0703 
     29 H3          2.2775    6.8986   -4.0171 H         1 <1>         0.0703 
     30 H4          3.9687    6.2226   -5.7050 H         1 <1>         0.0849 
     31 H5          6.5184    7.2731   -6.2645 H         1 <1>         0.0595 
     32 H6          6.6047    8.9183   -6.9611 H         1 <1>         0.0595 
     33 H7         10.6667    6.8548   -8.7346 H         1 <1>         0.0863 
     34 H8          6.5515    6.8088   -9.8793 H         1 <1>         0.1361 
     35 H9          3.7144    7.9636  -10.7137 H         1 <1>         0.0576 
     36 H10         2.7805    8.4054   -9.2501 H         1 <1>         0.0576 
     37 H11         3.9666    5.6935   -9.9466 H         1 <1>         0.0635 
     38 H12         1.5563    5.9456   -9.3659 H         1 <1>         0.0638 
     39 H13         1.9821    6.6087   -7.7633 H         1 <1>         0.0638 
     40 H40         2.0815    4.3256   -5.4280 H         1 <1>         0.0530 
     41 H41         0.0242    3.4932   -4.3049 H         1 <1>         0.0555 
     42 H42        -1.9297    2.7862   -5.6686 H         1 <1>         0.0513 
     43 H43        -1.8183    2.9122   -8.1513 H         1 <1>         0.0574 
     44 F44         0.2288    3.7631   -9.5096 F         1 <1>        -0.1902 
@<TRIPOS>BOND
     1    2    1 ar   
     2    2    3 ar   
     3    3    4 ar   
     4    4    5 ar   
     5    5    6 ar   
     6    1    6 ar   
     7    6    7 1    
     8    7    8 1    
     9    8    9 1    
    10    9   10 1    
    11   10   11 2    
    12   11   12 1    
    13   12   13 2    
    14    9   13 1    
    15    7   14 1    
    16   14   15 1    
    17   15   16 1    
    18   16   17 1    
    19    7   17 1    
    20   16   18 1    
    21   18   19 1    
    22   19   20 1    
    23   20   21 ar   
    24   21   22 ar   
    25   22   23 ar   
    26   23   24 ar   
    27   24   25 ar   
    28   20   25 ar   
    29    3   26 1    
    30    1   27 1    
    31    2   28 1    
    32    4   29 1    
    33    5   30 1    
    34    8   31 1    
    35    8   32 1    
    36   11   33 1    
    37   13   34 1    
    38   15   35 1    
    39   15   36 1    
    40   16   37 1    
    41   18   38 1    
    42   18   39 1    
    43   21   40 1    
    44   22   41 1    
    45   23   42 1    
    46   24   43 1    
    47   25   44 1    
@<TRIPOS>SUBSTRUCTURE
     1 ****        2 TEMP              0 ****  ****    0 ROOT 
@<TRIPOS>NORMAL
@<TRIPOS>FF_PBC
FORCE_FIELD_SETUP_FEATURE Force Field Setup information
v1.0  0 0.000000 0.000000 0.000000 0.000000 0.000000 0.000000 NONE 0 0 0 0 1 0 0 0 0 0 0 0 0
@<TRIPOS>RENDERING_ATTRS
ANTIALIASED_LINES 
*
