#	Name:			PISM00636
#	Creating user name:	baoopengkun
#	Creation time:		Mon Dec 10 11:31:27 2018

#	Modifying user name:	baoopengkun
#	Modification time:	Mon Dec 10 11:31:48 2018

@<TRIPOS>MOLECULE
PISM00636
   59    60     1     2     0
SMALL
GAST_HUCK


@<TRIPOS>ATOM
      1 C1        -10.9640   14.7092   -6.0668 C.2       1 <1>        -0.0591 
      2 C2        -10.8077   14.9024   -4.7528 C.2       1 <1>        -0.0350 
      3 C3        -11.1498   13.7929   -3.7830 C.3       1 <1>         0.1161 
      4 C4        -10.6958   12.3622   -4.2549 C.3       1 <1>        -0.0233 
      5 C5        -10.5086   12.2642   -5.8127 C.3       1 <1>        -0.0422 
      6 C6        -11.3576   13.3454   -6.4393 C.2       1 <1>        -0.0427 
      7 C7        -12.3899   13.0983   -7.2509 C.2       1 <1>         0.0343 
      8 C8        -12.8578   11.7305   -7.5093 C.2       1 <1>         0.1842 
      9 C9        -12.3466   10.5784   -6.6712 C.3       1 <1>         0.1287 
     10 C10       -10.8387   10.8578   -6.4159 C.3       1 <1>        -0.0664 
     11 O11       -13.6922   11.5465   -8.3813 O.2       1 <1>        -0.3167 
     12 C12       -13.1598   10.3797   -5.3994 C.2       1 <1>         0.0514 
     13 C13       -12.8074    9.2761   -4.4747 C.2       1 <1>         0.1282 
     14 O14       -11.9423    8.4588   -4.7380 O.2       1 <1>        -0.3613 
     15 C15       -14.2005   11.1656   -5.0792 C.2       1 <1>        -0.0185 
     16 O16       -10.6632   14.1988   -2.4859 O.3       1 <1>        -0.2627 
     17 C17       -11.0895   13.5205   -1.4029 C.2       1 <1>         0.2381 
     18 O18       -10.5764   13.7894   -0.3300 O.2       1 <1>        -0.3729 
     19 C19       -12.1319   12.4664   -1.4481 C.2       1 <1>         0.0052 
     20 C20       -12.0585   11.3824   -0.6627 C.2       1 <1>        -0.0621 
     21 C21       -13.0249   10.2626   -0.5917 C.2       1 <1>        -0.0583 
     22 C22       -14.3035   10.2949   -0.9955 C.2       1 <1>        -0.0584 
     23 C23       -15.2855    9.1385   -0.9262 C.3       1 <1>        -0.0049 
     24 C24       -14.6324    7.7393   -0.7403 C.3       1 <1>        -0.0482 
     25 C25       -16.3167    9.4589    0.1959 C.3       1 <1>        -0.0393 
     26 C26       -17.4785    8.4337    0.2878 C.3       1 <1>        -0.0623 
     27 C27        -9.4547   11.8373   -3.4698 C.3       1 <1>        -0.0656 
     28 C28        -9.0389   12.6125   -6.2264 C.3       1 <1>        -0.0880 
     29 O29       -12.4264    9.3611   -7.4386 O.3       1 <1>        -0.4251 
     30 H1        -10.8053   15.4901   -6.8108 H         1 <1>         0.0452 
     31 H2        -10.4718   15.8690   -4.3757 H         1 <1>         0.0827 
     32 H3        -12.2483   13.8766   -3.8093 H         1 <1>         0.0863 
     33 H4        -11.5060   11.6746   -3.9786 H         1 <1>         0.0249 
     34 H5        -12.9300   13.9192   -7.7210 H         1 <1>         0.1297 
     35 H6        -10.3747   10.7882   -7.4140 H         1 <1>         0.0068 
     36 H7        -10.3865   10.0658   -5.8035 H         1 <1>         0.0068 
     37 H8        -13.3088    9.1465   -3.5171 H         1 <1>         0.1341 
     38 H9        -14.7727   11.0051   -4.1662 H         1 <1>         0.1479 
     39 H10       -14.5483   11.9965   -5.6904 H         1 <1>         0.1479 
     40 H11       -12.9749   12.5661   -2.1229 H         1 <1>         0.0522 
     41 H12       -11.1904   11.3010   -0.0056 H         1 <1>         0.0705 
     42 H13       -12.6163    9.3530   -0.1545 H         1 <1>         0.0472 
     43 H14       -14.7078   11.2224   -1.3983 H         1 <1>         0.0859 
     44 H15       -15.8139    9.1143   -1.8956 H         1 <1>         0.0533 
     45 H16       -15.3651    6.9369   -0.9150 H         1 <1>         0.0265 
     46 H17       -14.2329    7.6232    0.2788 H         1 <1>         0.0265 
     47 H18       -13.8150    7.5985   -1.4642 H         1 <1>         0.0265 
     48 H19       -16.7587   10.4508   -0.0006 H         1 <1>         0.0298 
     49 H20       -15.7968    9.5073    1.1671 H         1 <1>         0.0298 
     50 H21       -18.2315    8.7863    1.0106 H         1 <1>         0.0232 
     51 H22       -17.1196    7.4516    0.6302 H         1 <1>         0.0232 
     52 H23       -17.9660    8.3151   -0.6923 H         1 <1>         0.0232 
     53 H24        -9.6811   11.6552   -2.4106 H         1 <1>         0.0227 
     54 H25        -8.6290   12.5626   -3.5111 H         1 <1>         0.0227 
     55 H26        -9.1071   10.8772   -3.8785 H         1 <1>         0.0227 
     56 H27        -8.6670   13.5255   -5.7381 H         1 <1>         0.0120 
     57 H28        -8.9746   12.7734   -7.3145 H         1 <1>         0.0120 
     58 H29        -8.3480   11.7927   -5.9797 H         1 <1>         0.0120 
     59 H30       -13.3142    9.1637   -7.7193 H         1 <1>         0.1926 
@<TRIPOS>BOND
     1    2    1 2    
     2    2    3 1    
     3    3    4 1    
     4    4    5 1    
     5    5    6 1    
     6    1    6 1    
     7    6    7 2    
     8    7    8 1    
     9    8    9 1    
    10    9   10 1    
    11    5   10 1    
    12    8   11 2    
    13    9   12 1    
    14   12   13 1    
    15   13   14 2    
    16   12   15 2    
    17    3   16 1    
    18   16   17 1    
    19   17   18 2    
    20   17   19 1    
    21   19   20 2    
    22   20   21 1    
    23   21   22 2    
    24   22   23 1    
    25   23   24 1    
    26   23   25 1    
    27   25   26 1    
    28    4   27 1    
    29    5   28 1    
    30    9   29 1    
    31    1   30 1    
    32    2   31 1    
    33    3   32 1    
    34    4   33 1    
    35    7   34 1    
    36   10   35 1    
    37   10   36 1    
    38   13   37 1    
    39   15   38 1    
    40   15   39 1    
    41   19   40 1    
    42   20   41 1    
    43   21   42 1    
    44   22   43 1    
    45   23   44 1    
    46   24   45 1    
    47   24   46 1    
    48   24   47 1    
    49   25   48 1    
    50   25   49 1    
    51   26   50 1    
    52   26   51 1    
    53   26   52 1    
    54   27   53 1    
    55   27   54 1    
    56   27   55 1    
    57   28   56 1    
    58   28   57 1    
    59   28   58 1    
    60   29   59 1    
@<TRIPOS>SUBSTRUCTURE
     1 ****        2 TEMP              0 ****  ****    0 ROOT 
@<TRIPOS>NORMAL
@<TRIPOS>FF_PBC
FORCE_FIELD_SETUP_FEATURE Force Field Setup information
v1.0  0 0.000000 0.000000 0.000000 0.000000 0.000000 0.000000 NONE 0 0 0 0 1 0 0 0 0 0 0 0 0
@<TRIPOS>RENDERING_ATTRS
ANTIALIASED_LINES 
*
