#	Name:			PISM00513
#	Creating user name:	malab
#	Creation time:		Thu Apr 04 11:57:39 2019

#	Modifying user name:	malab
#	Modification time:	Thu Apr 04 11:59:58 2019

@<TRIPOS>MOLECULE
PISM00513
  107   115     1     1     0
SMALL
GAST_HUCK


@<TRIPOS>ATOM
      1 C1         21.4820    5.4399  -11.6709 C.3       1 <1>         0.1431 
      2 C2         20.8675    4.0992  -11.3922 C.2       1 <1>         0.0140 
      3 C3         20.0297    3.9134  -10.3691 C.2       1 <1>        -0.0529 
      4 C4         19.6805    5.0240   -9.3946 C.3       1 <1>         0.0635 
      5 C5         20.7034    6.1687   -9.3571 C.3       1 <1>        -0.0084 
      6 C6         20.7583    6.5436  -10.8519 C.3       1 <1>         0.1071 
      7 C7         19.7362    4.4721   -7.9323 C.3       1 <1>        -0.0406 
      8 C8         20.8904    5.2453   -7.2224 C.3       1 <1>        -0.0138 
      9 C9         21.8158    5.6173   -8.4302 C.3       1 <1>         0.0486 
     10 C10        18.4794    4.3289   -7.0427 C.3       1 <1>        -0.0653 
     11 C11        21.4333    4.3464   -6.0808 C.3       1 <1>        -0.0465 
     12 C12        20.2235    4.3823   -5.1059 C.3       1 <1>         0.0482 
     13 C13        18.9454    3.7020   -5.6860 C.3       1 <1>        -0.0563 
     14 C14        19.9698    5.8558   -5.1037 C.2       1 <1>        -0.0328 
     15 C15        20.3874    6.4837   -6.3975 C.3       1 <1>        -0.0133 
     16 C16        19.4416    6.5254   -4.0728 C.2       1 <1>        -0.0406 
     17 O17        20.5686    3.9140   -3.7944 O.3       1 <1>        -0.4347 
     18 O18        18.6268    5.7269  -10.0567 O.3       1 <1>        -0.3321 
     19 C19        21.3472    7.9595  -11.1216 C.3       1 <1>        -0.0456 
     20 C20        19.2391    6.4761  -11.0066 C.2       1 <1>         0.2558 
     21 O21        18.6208    7.0879  -11.8614 O.2       1 <1>        -0.3128 
     22 O22        21.3443    5.6223  -13.0919 O.3       1 <1>        -0.3589 
     23 C23        22.8713    6.6151   -8.0426 C.2       1 <1>         0.1788 
     24 O24        22.7076    7.7893   -8.3289 O.2       1 <1>        -0.3968 
     25 N25        23.9544    6.1805   -7.3639 N.am      1 <1>        -0.2845 
     26 C26        24.8556    7.1609   -6.7686 C.3       1 <1>         0.0543 
     27 C27        24.1121    7.8627   -5.6055 C.3       1 <1>         0.0678 
     28 O28        25.0432    8.7626   -4.9949 O.3       1 <1>        -0.3755 
     29 C29        24.4737    9.5919   -3.9636 C.3       1 <1>         0.0711 
     30 C30        25.6672   10.4590   -3.5316 C.3       1 <1>         0.0711 
     31 O31        25.3318   11.4337   -2.5193 O.3       1 <1>        -0.3755 
     32 C32        26.5173   12.1425   -2.1098 C.3       1 <1>         0.0678 
     33 C33        26.2895   13.2766   -1.0773 C.3       1 <1>         0.0538 
     34 N34        27.6415   13.8245   -0.9355 N.am      1 <1>        -0.2833 
     35 C35        28.5536   13.1009   -0.2465 C.2       1 <1>         0.2106 
     36 O36        28.1780   12.2682    0.5624 O.2       1 <1>        -0.3824 
     37 C37        31.8524   14.1104   -1.8465 C.ar      1 <1>        -0.0444 
     38 C38        32.5606   12.9189   -1.6713 C.ar      1 <1>        -0.0295 
     39 C39        32.0813   11.9455   -0.7897 C.ar      1 <1>         0.0830 
     40 C40        30.8825   12.1725   -0.1055 C.ar      1 <1>         0.0425 
     41 C41        30.0394   13.2097   -0.5273 C.ar      1 <1>         0.0713 
     42 C42        30.6030   14.2729   -1.2435 C.ar      1 <1>        -0.0306 
     43 C43        32.8676   10.6608   -0.6223 C.2       1 <1>         0.2663 
     44 O44        33.2336   10.0795   -1.6278 O.2       1 <1>        -0.3546 
     45 O45        33.1879   10.1272    0.5573 O.3       1 <1>        -0.2928 
     46 C46        30.4985   11.3065    1.0755 C.2       1 <1>         0.0280 
     47 C47        30.6846   11.7582    2.3205 C.2       1 <1>         0.0406 
     48 C48        31.2683   13.0941    2.5875 C.2       1 <1>        -0.0488 
     49 C49        31.4529   13.5288    3.8386 C.2       1 <1>        -0.0360 
     50 C50        31.0703   12.6772    4.9724 C.2       1 <1>         0.0686 
     51 C51        30.4997   11.3460    4.7218 C.2       1 <1>        -0.0187 
     52 C52        30.3140   10.9043    3.4738 C.2       1 <1>         0.1284 
     53 O53        29.7972    9.6834    3.2931 O.3       1 <1>        -0.2388 
     54 C54        29.5797    9.1800    2.0115 C.ar      1 <1>         0.1460 
     55 C55        29.9018    9.9318    0.8779 C.ar      1 <1>         0.0433 
     56 C56        29.6618    9.4043   -0.3953 C.ar      1 <1>        -0.0502 
     57 C57        29.0990    8.1302   -0.5265 C.ar      1 <1>        -0.0281 
     58 C58        28.7827    7.3720    0.6031 C.ar      1 <1>         0.0947 
     59 C59        29.0288    7.9022    1.8747 C.ar      1 <1>         0.0163 
     60 O60        31.2300   13.0743    6.1148 O.2       1 <1>        -0.4423 
     61 O61        28.2275    6.0994    0.4382 O.3       1 <1>        -0.3271 
     62 H1         22.5481    5.4056  -11.3855 H         1 <1>         0.1020 
     63 H2         21.1102    3.2728  -12.0602 H         1 <1>         0.1556 
     64 H3         19.5693    2.9324  -10.2410 H         1 <1>         0.0491 
     65 H4         20.2920    7.0680   -8.8737 H         1 <1>         0.0204 
     66 H5         20.0936    3.4320   -8.0215 H         1 <1>         0.0190 
     67 H6         22.2834    4.7181   -8.8616 H         1 <1>         0.0535 
     68 H7         17.7414    3.6702   -7.5294 H         1 <1>         0.0249 
     69 H8         17.9928    5.3042   -6.8949 H         1 <1>         0.0249 
     70 H9         22.3130    4.8046   -5.6013 H         1 <1>         0.0176 
     71 H10        21.7046    3.3226   -6.3807 H         1 <1>         0.0176 
     72 H11        18.1288    3.7797   -4.9509 H         1 <1>         0.0167 
     73 H12        19.1718    2.6323   -5.8230 H         1 <1>         0.0167 
     74 H13        19.5443    7.0597   -6.8041 H         1 <1>         0.0432 
     75 H14        21.2059    7.1740   -6.1594 H         1 <1>         0.0432 
     76 H15        19.1558    5.9920   -3.1678 H         1 <1>         0.1257 
     77 H16        19.2912    7.6030   -4.1232 H         1 <1>         0.1257 
     78 H17        20.8047    2.9930   -3.8069 H         1 <1>         0.1919 
     79 H18        20.9468    8.7048  -10.4190 H         1 <1>         0.0225 
     80 H19        21.0877    8.2960  -12.1367 H         1 <1>         0.0225 
     81 H20        22.4416    7.9430  -11.0202 H         1 <1>         0.0225 
     82 H21        21.7468    6.4168  -13.4276 H         1 <1>         0.2177 
     83 H22        24.1203    5.2061   -7.1945 H         1 <1>         0.1851 
     84 H23        25.1669    7.9114   -7.5146 H         1 <1>         0.0543 
     85 H24        25.7673    6.6817   -6.3727 H         1 <1>         0.0543 
     86 H25        23.7554    7.1136   -4.8798 H         1 <1>         0.0580 
     87 H26        23.2545    8.4321   -5.9935 H         1 <1>         0.0580 
     88 H27        24.0977    9.0026   -3.1120 H         1 <1>         0.0583 
     89 H28        23.6688   10.2405   -4.3443 H         1 <1>         0.0583 
     90 H29        26.0453   10.9668   -4.4361 H         1 <1>         0.0583 
     91 H30        26.4420    9.7606   -3.1721 H         1 <1>         0.0583 
     92 H31        26.9947   12.6060   -2.9909 H         1 <1>         0.0580 
     93 H32        27.2215   11.4127   -1.6737 H         1 <1>         0.0580 
     94 H33        25.8837   12.8769   -0.1320 H         1 <1>         0.0542 
     95 H34        25.5754   14.0175   -1.4760 H         1 <1>         0.0542 
     96 H35        27.8908   14.5732   -1.5483 H         1 <1>         0.1845 
     97 H36        32.2706   14.9072   -2.4562 H         1 <1>         0.0692 
     98 H37        33.4871   12.7522   -2.2148 H         1 <1>         0.0723 
     99 H38        30.0871   15.2224   -1.3431 H         1 <1>         0.0722 
    100 H39        32.9932   10.6865    1.2969 H         1 <1>         0.2523 
    101 H40        31.5678   13.7612    1.7798 H         1 <1>         0.0663 
    102 H41        31.8867   14.5088    4.0433 H         1 <1>         0.0526 
    103 H42        30.2302   10.7168    5.5707 H         1 <1>         0.0197 
    104 H43        29.9042    9.9708   -1.2882 H         1 <1>         0.0650 
    105 H44        28.9020    7.7150   -1.5094 H         1 <1>         0.0526 
    106 H45        28.7965    7.3333    2.7680 H         1 <1>         0.0505 
    107 H46        28.0864    5.6203    1.2474 H         1 <1>         0.2528 
@<TRIPOS>BOND
     1    1    2 1    
     2    3    2 2    
     3    4    3 1    
     4    5    4 1    
     5    5    6 1    
     6    6    1 1    
     7    4    7 1    
     8    8    7 1    
     9    9    8 1    
    10    9    5 1    
    11    7   10 1    
    12    8   11 1    
    13   11   12 1    
    14   12   13 1    
    15   10   13 1    
    16   14   12 1    
    17    8   15 1    
    18   15   14 1    
    19   14   16 2    
    20   12   17 1    
    21    4   18 1    
    22    6   19 1    
    23    6   20 1    
    24   20   21 2    
    25   20   18 1    
    26    1   22 1    
    27   23    9 1    
    28   23   24 2    
    29   25   23 am   
    30   26   25 1    
    31   27   26 1    
    32   28   27 1    
    33   29   28 1    
    34   30   29 1    
    35   31   30 1    
    36   32   31 1    
    37   33   32 1    
    38   34   33 1    
    39   35   34 am   
    40   35   36 2    
    41   41   35 1    
    42   37   38 ar   
    43   39   38 ar   
    44   40   39 ar   
    45   41   40 ar   
    46   41   42 ar   
    47   42   37 ar   
    48   39   43 1    
    49   43   44 2    
    50   43   45 1    
    51   40   46 1    
    52   46   47 2    
    53   47   48 1    
    54   48   49 2    
    55   49   50 1    
    56   51   50 1    
    57   52   51 2    
    58   47   52 1    
    59   52   53 1    
    60   54   53 1    
    61   55   54 ar   
    62   46   55 1    
    63   55   56 ar   
    64   56   57 ar   
    65   57   58 ar   
    66   59   58 ar   
    67   54   59 ar   
    68   50   60 2    
    69   58   61 1    
    70    1   62 1    
    71    2   63 1    
    72    3   64 1    
    73    5   65 1    
    74    7   66 1    
    75    9   67 1    
    76   10   68 1    
    77   10   69 1    
    78   11   70 1    
    79   11   71 1    
    80   13   72 1    
    81   13   73 1    
    82   15   74 1    
    83   15   75 1    
    84   16   76 1    
    85   16   77 1    
    86   17   78 1    
    87   19   79 1    
    88   19   80 1    
    89   19   81 1    
    90   22   82 1    
    91   25   83 1    
    92   26   84 1    
    93   26   85 1    
    94   27   86 1    
    95   27   87 1    
    96   29   88 1    
    97   29   89 1    
    98   30   90 1    
    99   30   91 1    
   100   32   92 1    
   101   32   93 1    
   102   33   94 1    
   103   33   95 1    
   104   34   96 1    
   105   37   97 1    
   106   38   98 1    
   107   42   99 1    
   108   45  100 1    
   109   48  101 1    
   110   49  102 1    
   111   51  103 1    
   112   56  104 1    
   113   57  105 1    
   114   59  106 1    
   115   61  107 1    
@<TRIPOS>SUBSTRUCTURE
     1 ****       37 TEMP              0 ****  ****    0 ROOT 
@<TRIPOS>NORMAL
@<TRIPOS>FF_PBC
FORCE_FIELD_SETUP_FEATURE Force Field Setup information
v1.0  0 0.000000 0.000000 0.000000 0.000000 0.000000 0.000000 NONE 0 0 0 0 1 0 0 0 0 0 0 0 0
