#	Name:			PISM00490
#	Creating user name:	baoopengkun
#	Creation time:		Wed Feb 27 21:16:47 2019

#	Modifying user name:	baoopengkun
#	Modification time:	Wed Feb 27 21:17:49 2019

@<TRIPOS>MOLECULE
PISM00490
   15    16     1     1     0
SMALL
GAST_HUCK


@<TRIPOS>ATOM
      1 C1         25.4515    8.3981   -9.1930 C.3       1 <1>        -0.0042 
      2 C2         26.7517    7.9571   -9.8177 C.2       1 <1>        -0.0846 
      3 C3         26.4632    7.2902  -10.9404 C.2       1 <1>        -0.0846 
      4 C4         24.9630    7.2686  -11.0947 C.3       1 <1>        -0.0042 
      5 C5         24.4608    6.4536   -9.9291 C.2       1 <1>        -0.0846 
      6 C6         24.7493    7.1205   -8.8064 C.2       1 <1>        -0.0846 
      7 C7         24.6766    8.6689  -10.5038 C.3       1 <1>        -0.0224 
      8 H1         25.4691    9.2291   -8.4709 H         1 <1>         0.0531 
      9 H2         27.7478    8.1414   -9.4166 H         1 <1>         0.0487 
     10 H3         27.1818    6.8328  -11.6197 H         1 <1>         0.0487 
     11 H4         24.5386    7.0779  -12.0927 H         1 <1>         0.0531 
     12 H5         23.9615    5.4874   -9.9933 H         1 <1>         0.0487 
     13 H6         24.5275    6.7959   -7.7903 H         1 <1>         0.0487 
     14 H7         25.1030    9.4928  -11.1028 H         1 <1>         0.0341 
     15 H8         23.6018    8.8660  -10.3447 H         1 <1>         0.0341 
@<TRIPOS>BOND
     1    2    1 1    
     2    2    3 2    
     3    3    4 1    
     4    4    5 1    
     5    5    6 2    
     6    1    6 1    
     7    1    7 1    
     8    4    7 1    
     9    1    8 1    
    10    2    9 1    
    11    3   10 1    
    12    4   11 1    
    13    5   12 1    
    14    6   13 1    
    15    7   14 1    
    16    7   15 1    
@<TRIPOS>SUBSTRUCTURE
     1 ****        2 TEMP              0 ****  ****    0 ROOT 
@<TRIPOS>NORMAL
@<TRIPOS>FF_PBC
FORCE_FIELD_SETUP_FEATURE Force Field Setup information
v1.0  0 0.000000 0.000000 0.000000 0.000000 0.000000 0.000000 NONE 0 0 0 0 1 0 0 0 0 0 0 0 0
