#	Name:			PISM01034.2
#	Creating user name:	malab
#	Creation time:		Tue Jul 02 17:12:55 2019

#	Modifying user name:	malab
#	Modification time:	Tue Jul 02 17:47:30 2019

@<TRIPOS>MOLECULE
PISM01034.2
   45    45     1     1     0
SMALL
GAST_HUCK


@<TRIPOS>ATOM
      1 N1         -9.7050    1.0786   -5.5700 N.pl3     1 <1>        -0.1726 
      2 C2        -10.0792   -0.1629   -5.4839 C.2       1 <1>         0.1282 
      3 N3        -11.0869   -0.3651   -6.2031 N.2       1 <1>        -0.2870 
      4 C4        -11.4647    0.8383   -6.8897 C.2       1 <1>         0.0618 
      5 N5        -10.5709    1.6468   -6.4568 N.2       1 <1>        -0.1898 
      6 C6         -8.5417    1.7067   -4.9490 C.3       1 <1>         0.1128 
      7 C7         -8.7807    2.1639   -3.4687 C.3       1 <1>         0.0926 
      8 O8         -9.1560    0.9977   -2.7102 O.3       1 <1>        -0.3880 
      9 C9         -9.7239    3.3822   -3.1394 C.3       1 <1>        -0.0087 
     10 C10       -10.0964    3.3233   -1.6222 C.3       1 <1>        -0.0576 
     11 C11        -9.0148    4.7569   -3.3616 C.3       1 <1>        -0.0576 
     12 C12       -11.0444    3.3537   -3.9617 C.3       1 <1>        -0.0576 
     13 C13        -7.9401    2.7718   -5.9068 C.3       1 <1>        -0.0175 
     14 C14        -7.3897    2.1285   -7.2114 C.3       1 <1>        -0.0500 
     15 C15        -6.2742    2.5657   -9.4817 C.3       1 <1>        -0.0533 
     16 C16        -5.7254    3.6469  -10.4524 C.3       1 <1>        -0.0559 
     17 C17        -5.1574    3.0080  -11.7465 C.3       1 <1>        -0.0653 
     18 H1         -9.6017   -0.9394   -4.8866 H         1 <1>         0.1361 
     19 C19        -6.8358    3.2067   -8.1830 C.3       1 <1>        -0.0530 
     20 H2        -12.2813    1.0159   -7.5878 H         1 <1>         0.0863 
     21 H3         -7.7777    0.9133   -4.8693 H         1 <1>         0.0705 
     22 H4         -7.7916    2.4208   -3.0538 H         1 <1>         0.0631 
     23 H5        -10.0252    0.6776   -2.9255 H         1 <1>         0.2099 
     24 H6        -10.7194    2.4469   -1.3896 H         1 <1>         0.0236 
     25 H7        -10.6660    4.2136   -1.3136 H         1 <1>         0.0236 
     26 H8         -9.1858    3.2728   -1.0053 H         1 <1>         0.0236 
     27 H9         -8.0944    4.8250   -2.7616 H         1 <1>         0.0236 
     28 H10        -9.6753    5.5836   -3.0573 H         1 <1>         0.0236 
     29 H11        -8.7506    4.9353   -4.4092 H         1 <1>         0.0236 
     30 H12       -10.8536    3.5979   -5.0142 H         1 <1>         0.0236 
     31 H13       -11.7537    4.1036   -3.5795 H         1 <1>         0.0236 
     32 H14       -11.5283    2.3676   -3.9070 H         1 <1>         0.0236 
     33 H15        -7.1215    3.3087   -5.4010 H         1 <1>         0.0297 
     34 H16        -8.7198    3.4899   -6.1967 H         1 <1>         0.0297 
     35 H17        -8.1937    1.5668   -7.7150 H         1 <1>         0.0266 
     36 H18        -6.5813    1.4216   -6.9623 H         1 <1>         0.0266 
     37 H19        -7.0744    1.9977   -9.9843 H         1 <1>         0.0265 
     38 H20        -5.4636    1.8648   -9.2225 H         1 <1>         0.0265 
     39 H21        -4.9259    4.2200   -9.9536 H         1 <1>         0.0263 
     40 H22        -6.5346    4.3462  -10.7212 H         1 <1>         0.0263 
     41 H23        -4.7761    3.7917  -12.4202 H         1 <1>         0.0230 
     42 H24        -5.9430    2.4447  -12.2739 H         1 <1>         0.0230 
     43 H25        -4.3310    2.3212  -11.5054 H         1 <1>         0.0230 
     44 H26        -6.0339    3.7728   -7.6812 H         1 <1>         0.0265 
     45 H27        -7.6429    3.9103   -8.4460 H         1 <1>         0.0265 
@<TRIPOS>BOND
     1    2    1 1    
     2    2    3 2    
     3    3    4 1    
     4    4    5 2    
     5    1    5 1    
     6    1    6 1    
     7    6    7 1    
     8    7    8 1    
     9    7    9 1    
    10    9   10 1    
    11    9   11 1    
    12    9   12 1    
    13    6   13 1    
    14   13   14 1    
    15   19   15 1    
    16   15   16 1    
    17   16   17 1    
    18    2   18 1    
    19    4   20 1    
    20   14   19 1    
    21    6   21 1    
    22    7   22 1    
    23    8   23 1    
    24   10   24 1    
    25   10   25 1    
    26   10   26 1    
    27   11   27 1    
    28   11   28 1    
    29   11   29 1    
    30   12   30 1    
    31   12   31 1    
    32   12   32 1    
    33   13   33 1    
    34   13   34 1    
    35   14   35 1    
    36   14   36 1    
    37   15   37 1    
    38   15   38 1    
    39   16   39 1    
    40   16   40 1    
    41   17   41 1    
    42   17   42 1    
    43   17   43 1    
    44   19   44 1    
    45   19   45 1    
@<TRIPOS>SUBSTRUCTURE
     1 ****        2 TEMP              0 ****  ****    0 ROOT 
@<TRIPOS>NORMAL
@<TRIPOS>FF_PBC
FORCE_FIELD_SETUP_FEATURE Force Field Setup information
v1.0  0 0.000000 0.000000 0.000000 0.000000 0.000000 0.000000 NONE 0 0 0 0 1 0 0 0 0 0 0 0 0
