#	Name:			PISM01147
#	Creating user name:	baoopengkun
#	Creation time:		Tue Dec 18 16:07:30 2018

#	Modifying user name:	baoopengkun
#	Modification time:	Tue Dec 18 16:09:00 2018

@<TRIPOS>MOLECULE
PISM01147
   35    37     1     1     0
SMALL
GAST_HUCK


@<TRIPOS>ATOM
      1 C1         12.8880   11.9310    5.8359 C.3       1 <1>         0.0602 
      2 O2         12.0612   11.8294    4.6648 O.3       1 <1>        -0.3230 
      3 C3         10.9424   12.6517    4.4691 C.ar      1 <1>         0.0797 
      4 C4         10.1876   12.4864    3.3051 C.ar      1 <1>        -0.0095 
      5 C5          9.0649   13.2841    3.0501 C.ar      1 <1>         0.0925 
      6 O6          8.3188   13.1185    1.8789 O.3       1 <1>        -0.3326 
      7 C7          8.6913   14.2588    3.9828 C.ar      1 <1>         0.0787 
      8 C8          9.4296   14.4168    5.1604 C.ar      1 <1>         0.0990 
      9 C9         10.5573   13.6275    5.3966 C.ar      1 <1>        -0.0090 
     10 O10         9.0537   15.3661    6.1156 O.3       1 <1>        -0.3013 
     11 C11         7.6655   15.7407    6.1601 C.3       1 <1>         0.1258 
     12 C12         7.2507   16.2662    4.7655 C.3       1 <1>         0.0562 
     13 C13         7.5016   15.1689    3.7720 C.2       1 <1>         0.1187 
     14 O14         6.7440   15.0392    2.8249 O.2       1 <1>        -0.3966 
     15 C15         7.5100   16.7414    7.3200 C.ar      1 <1>        -0.0181 
     16 C16         7.9305   16.3277    8.5895 C.ar      1 <1>        -0.0658 
     17 C17         7.8164   17.1761    9.6941 C.ar      1 <1>        -0.0397 
     18 C18         7.2810   18.4573    9.5476 C.ar      1 <1>         0.0805 
     19 C19         6.8620   18.8805    8.2806 C.ar      1 <1>        -0.0397 
     20 C20         6.9767   18.0297    7.1763 C.ar      1 <1>        -0.0658 
     21 O21         7.1760   19.2866   10.6683 O.3       1 <1>        -0.3376 
     22 H1         13.6874   11.1806    5.7477 H         1 <1>         0.0580 
     23 H2         12.3105   11.7156    6.7481 H         1 <1>         0.0580 
     24 H3         13.3537   12.9260    5.9063 H         1 <1>         0.0580 
     25 H4         10.4912   11.7229    2.5971 H         1 <1>         0.0390 
     26 H5          8.6294   12.4365    1.2949 H         1 <1>         0.2506 
     27 H6         11.1109   13.7970    6.3113 H         1 <1>         0.0390 
     28 H7          7.0554   14.8555    6.4103 H         1 <1>         0.0822 
     29 H8          7.8616   17.1362    4.4818 H         1 <1>         0.0528 
     30 H9          6.1831   16.5367    4.7487 H         1 <1>         0.0528 
     31 H10         8.3523   15.3361    8.7235 H         1 <1>         0.0531 
     32 H11         8.1441   16.8431   10.6735 H         1 <1>         0.0525 
     33 H12         6.4443   19.8730    8.1443 H         1 <1>         0.0525 
     34 H13         6.6426   18.3974    6.2137 H         1 <1>         0.0531 
     35 H14         6.8120   20.1459   10.4884 H         1 <1>         0.2458 
@<TRIPOS>BOND
     1    2    1 1    
     2    2    3 1    
     3    3    4 ar   
     4    4    5 ar   
     5    5    6 1    
     6    5    7 ar   
     7    7    8 ar   
     8    8    9 ar   
     9    3    9 ar   
    10    8   10 1    
    11   10   11 1    
    12   11   12 1    
    13   12   13 1    
    14    7   13 1    
    15   13   14 2    
    16   11   15 1    
    17   15   16 ar   
    18   16   17 ar   
    19   17   18 ar   
    20   18   19 ar   
    21   19   20 ar   
    22   15   20 ar   
    23   18   21 1    
    24    1   22 1    
    25    1   23 1    
    26    1   24 1    
    27    4   25 1    
    28    6   26 1    
    29    9   27 1    
    30   11   28 1    
    31   12   29 1    
    32   12   30 1    
    33   16   31 1    
    34   17   32 1    
    35   19   33 1    
    36   20   34 1    
    37   21   35 1    
@<TRIPOS>SUBSTRUCTURE
     1 ****        2 TEMP              0 ****  ****    0 ROOT 
@<TRIPOS>NORMAL
@<TRIPOS>FF_PBC
FORCE_FIELD_SETUP_FEATURE Force Field Setup information
v1.0  0 0.000000 0.000000 0.000000 0.000000 0.000000 0.000000 NONE 0 0 0 0 1 0 0 0 0 0 0 0 0
