#	Name:			PISM01084
#	Creating user name:	Qinrunwen
#	Creation time:		Mon Apr 01 10:56:09 2019

#	Modifying user name:	Qinrunwen
#	Modification time:	Mon Apr 01 10:57:35 2019

@<TRIPOS>MOLECULE
PISM01084
   29    28     1     1     0
SMALL
GAST_HUCK


@<TRIPOS>ATOM
      1 C1          1.1360   28.4467    6.5688 C.3       1 <1>        -0.0244 
      2 C2          0.0660   27.3549    6.8798 C.3       1 <1>        -0.0330 
      3 N3         -1.3673   27.7798    7.0736 N.4       1 <1>         0.2425 
      4 C4         -2.1742   26.5852    7.5147 C.3       1 <1>        -0.0330 
      5 C5         -2.3542   25.3946    6.5230 C.3       1 <1>        -0.0244 
      6 C6         -1.4678   28.8520    8.1285 C.3       1 <1>        -0.0330 
      7 C7         -0.8454   28.5821    9.5333 C.3       1 <1>        -0.0244 
      8 C8         -1.8934   28.3271    5.7711 C.3       1 <1>        -0.0330 
      9 C9         -3.4058   28.6958    5.6693 C.3       1 <1>        -0.0244 
     10 H1          2.1256   27.9705    6.4677 H         1 <1>         0.0281 
     11 H2          1.2216   29.1949    7.3692 H         1 <1>         0.0281 
     12 H3          0.9330   28.9679    5.6221 H         1 <1>         0.0281 
     13 H4          0.4331   26.8094    7.7647 H         1 <1>         0.0812 
     14 H5          0.1465   26.6442    6.0415 H         1 <1>         0.0812 
     15 H6         -3.1902   26.8910    7.8140 H         1 <1>         0.0812 
     16 H7         -1.7270   26.1298    8.4130 H         1 <1>         0.0812 
     17 H8         -2.9747   24.6153    6.9961 H         1 <1>         0.0281 
     18 H9         -1.3951   24.9253    6.2607 H         1 <1>         0.0281 
     19 H10        -2.8646   25.6903    5.5956 H         1 <1>         0.0281 
     20 H11        -2.5236   29.0891    8.3365 H         1 <1>         0.0812 
     21 H12        -1.0194   29.7934    7.7705 H         1 <1>         0.0812 
     22 H13         0.2376   28.4009    9.4881 H         1 <1>         0.0281 
     23 H14        -1.3220   27.7313   10.0410 H         1 <1>         0.0281 
     24 H15        -0.9963   29.4655   10.1759 H         1 <1>         0.0281 
     25 H16        -1.6929   27.6254    4.9448 H         1 <1>         0.0812 
     26 H17        -1.3652   29.2563    5.5031 H         1 <1>         0.0812 
     27 H18        -3.6239   29.0680    4.6543 H         1 <1>         0.0281 
     28 H19        -3.6855   29.4950    6.3707 H         1 <1>         0.0281 
     29 H20        -4.0639   27.8327    5.8415 H         1 <1>         0.0281 
@<TRIPOS>BOND
     1    2    1 1    
     2    2    3 1    
     3    3    4 1    
     4    4    5 1    
     5    3    6 1    
     6    6    7 1    
     7    3    8 1    
     8    8    9 1    
     9    1   10 1    
    10    1   11 1    
    11    1   12 1    
    12    2   13 1    
    13    2   14 1    
    14    4   15 1    
    15    4   16 1    
    16    5   17 1    
    17    5   18 1    
    18    5   19 1    
    19    6   20 1    
    20    6   21 1    
    21    7   22 1    
    22    7   23 1    
    23    7   24 1    
    24    8   25 1    
    25    8   26 1    
    26    9   27 1    
    27    9   28 1    
    28    9   29 1    
@<TRIPOS>SUBSTRUCTURE
     1 ****        2 TEMP              0 ****  ****    0 ROOT 
@<TRIPOS>NORMAL
@<TRIPOS>FF_PBC
FORCE_FIELD_SETUP_FEATURE Force Field Setup information
v1.0  0 0.000000 0.000000 0.000000 0.000000 0.000000 0.000000 NONE 0 0 0 0 1 0 0 0 0 0 0 0 0
