#	Name:			PISM00600
#	Creating user name:	baoopengkun
#	Creation time:		Mon Dec 10 12:03:37 2018

#	Modifying user name:	baoopengkun
#	Modification time:	Mon Dec 10 12:03:49 2018

@<TRIPOS>MOLECULE
PISM00600
   41    43     1     2     0
SMALL
GAST_HUCK


@<TRIPOS>ATOM
      1 C1         -2.8317    9.1238   -4.3384 C.ar      1 NO2        -0.0442 
      2 C2         -4.2097    9.3565   -4.3053 C.ar      1 NO2        -0.0015 
      3 C3         -5.0957    8.5472   -5.0316 C.ar      1 NO2         0.1709 
      4 C4         -4.5636    7.4896   -5.7836 C.ar      1 NO2        -0.0015 
      5 C5         -3.1862    7.2543   -5.8174 C.ar      1 NO2        -0.0442 
      6 C6         -2.3105    8.0809   -5.1087 C.ar      1 NO2        -0.0116 
      7 C7         -0.7955    7.8399   -5.1770 C.3       1 NO2         0.1760 
      8 C8         -0.3907    6.8234   -4.0807 C.3       1 NO2         0.0989 
      9 N9          0.9942    6.3723   -4.1197 N.pl3     1 NO2        -0.1837 
     10 N10         1.4970    5.2790   -3.4796 N.2       1 NO2        -0.1910 
     11 C11         2.7438    5.0901   -3.7042 C.2       1 NO2         0.0618 
     12 N12         3.0272    6.1896   -4.5842 N.2       1 NO2        -0.2870 
     13 C13         1.9929    6.8732   -4.7817 C.2       1 NO2         0.1268 
     14 O14        -0.0640    9.0682   -5.0752 O.3       1 NO2        -0.3930 
     15 C15        -0.2333    9.7405   -6.3265 C.3       1 NO2         0.0614 
     16 C16        -0.2309    8.5507   -7.3189 C.3       1 NO2         0.0698 
     17 O17        -0.4094    7.3953   -6.4843 O.3       1 NO2        -0.3904 
     18 N          -6.4359    8.7813   -5.0069 N.pl3     1 NO2         0.1472 
     19 C19        -1.3315    8.6559   -8.4075 C.3       1 NO2        -0.0259 
     20 C20        -1.3178    7.4137   -9.3384 C.3       1 NO2        -0.0535 
     21 C21        -2.4325    7.5025  -10.4127 C.3       1 NO2        -0.0652 
     22 H22        -2.1625    9.7567   -3.7627 H         1 NO2         0.0816 
     23 H23        -4.5779   10.1807   -3.7024 H         1 NO2         0.0634 
     24 H3         -5.2119    6.8325   -6.3547 H         1 NO2         0.0634 
     25 H4         -2.7936    6.4253   -6.3988 H         1 NO2         0.0816 
     26 H5         -1.0185    5.9260   -4.1851 H         1 NO2         0.0568 
     27 H6         -0.5762    7.2734   -3.0944 H         1 NO2         0.0568 
     28 H7          3.4049    4.3096   -3.3307 H         1 NO2         0.0863 
     29 H8          1.9785    7.7510   -5.4244 H         1 NO2         0.1361 
     30 H9          0.5739   10.4679   -6.5037 H         1 NO2         0.0572 
     31 H10        -1.1980   10.2714   -6.3299 H         1 NO2         0.0572 
     32 H11         0.7600    8.4492   -7.7911 H         1 NO2         0.0606 
     33 H12        -1.1576    9.5670   -9.0027 H         1 NO2         0.0290 
     34 H13        -2.3197    8.7398   -7.9304 H         1 NO2         0.0290 
     35 H14        -1.4678    6.5009   -8.7384 H         1 NO2         0.0263 
     36 H15        -0.3380    7.3382   -9.8388 H         1 NO2         0.0263 
     37 H16        -2.4026    6.6149  -11.0643 H         1 NO2         0.0230 
     38 H17        -2.2943    8.3996  -11.0360 H         1 NO2         0.0230 
     39 H18        -3.4234    7.5525   -9.9347 H         1 NO2         0.0230 
     40 O          -6.8448    9.7060   -4.3387 O.2       1 NO2        -0.1003 
     41 O          -7.1573    8.0548   -5.6552 O.2       1 NO2        -0.1003 
@<TRIPOS>BOND
     1    2    1 ar   
     2    3    2 ar   
     3    3    4 ar   
     4    4    5 ar   
     5    5    6 ar   
     6    1    6 ar   
     7    6    7 1    
     8    7    8 1    
     9    8    9 1    
    10    9   10 1    
    11   10   11 2    
    12   12   11 1    
    13   13   12 2    
    14    9   13 1    
    15    7   14 1    
    16   14   15 1    
    17   16   15 1    
    18   17   16 1    
    19    7   17 1    
    20   18   40 2    
    21   16   19 1    
    22   19   20 1    
    23   20   21 1    
    24    1   22 1    
    25    2   23 1    
    26    4   24 1    
    27    5   25 1    
    28    8   26 1    
    29    8   27 1    
    30   11   28 1    
    31   13   29 1    
    32   15   30 1    
    33   15   31 1    
    34   16   32 1    
    35   19   33 1    
    36   19   34 1    
    37   20   35 1    
    38   20   36 1    
    39   21   37 1    
    40   21   38 1    
    41   21   39 1    
    42   18   41 2    
    43   18    3 1    
@<TRIPOS>SUBSTRUCTURE
     1 NO2        18 PERM              0 ****  ****    0 ROOT 
@<TRIPOS>NORMAL
@<TRIPOS>FF_PBC
FORCE_FIELD_SETUP_FEATURE Force Field Setup information
v1.0  0 0.000000 0.000000 0.000000 0.000000 0.000000 0.000000 NONE 0 0 0 0 1 0 0 0 0 0 0 0 0
@<TRIPOS>RENDERING_ATTRS
ANTIALIASED_LINES 
1,2,3,4,5,6,7,8,9,10,11,12,13,14,15,16,17,19,20,21,22,23,24,25,26,27,28,29,30,31,32,33,34,35,36,37,38,39
