#	Name:			PISM00247
#	Creating user name:	14062
#	Creation time:		Wed Jun 19 14:39:27 2019

#	Modifying user name:	14062
#	Modification time:	Wed Jun 19 14:43:29 2019

@<TRIPOS>MOLECULE
PISM00247
   27    28     1     2     0
SMALL
GAST_HUCK


@<TRIPOS>ATOM
      1 C1          0.3891    1.0304   -2.6940 C.ar      1 BENZYL     -0.0280 
      2 C1         -0.9351    1.4388   -2.8747 C.ar      1 BENZYL      0.1161 
      3 C3         -2.3045    2.2255   -4.6398 C.ar      1 BENZYL      0.1161 
      4 C3         -3.2130    3.2569   -4.8911 C.ar      1 BENZYL     -0.0285 
      5 C4         -4.3103    3.0410   -5.7302 C.ar      1 BENZYL     -0.0697 
      6 C5         -4.4990    1.7888   -6.3220 C.ar      1 BENZYL     -0.0723 
      7 C6         -3.5869    0.7572   -6.0803 C.ar      1 BENZYL     -0.0697 
      8 C7         -2.4860    0.9778   -5.2473 C.ar      1 BENZYL     -0.0285 
      9 C9          0.6909   -0.0013   -1.8002 C.ar      1 BENZYL     -0.0632 
     10 C10        -0.3341   -0.6206   -1.0812 C.ar      1 BENZYL     -0.0342 
     11 C11        -1.6574   -0.2055   -1.2480 C.ar      1 BENZYL     -0.0632 
     12 C12        -1.9577    0.8291   -2.1391 C.ar      1 BENZYL     -0.0280 
     13 B13        -0.0193   -1.7127   -0.1451 B         1 BENZYL      0.0000 
     14 O14         1.2279   -2.5453    0.7132 O.3       1 BENZYL     -0.2528 
     15 O15        -0.2515   -3.0556    0.9167 O.3       1 BENZYL     -0.2528 
     16 O16        -1.2224    2.4552   -3.7876 O.3       1 BENZYL     -0.2579 
     17 H1          1.1808    1.5178   -3.2533 H         1 BENZYL      0.0552 
     18 H2         -3.0619    4.2269   -4.4293 H         1 BENZYL      0.0552 
     19 H3         -5.0150    3.8446   -5.9216 H         1 BENZYL      0.0590 
     20 H4         -5.3534    1.6174   -6.9699 H         1 BENZYL      0.0528 
     21 H5         -3.7332   -0.2153   -6.5405 H         1 BENZYL      0.0590 
     22 H6         -1.7725    0.1784   -5.0765 H         1 BENZYL      0.0552 
     23 H7          1.7169   -0.3250   -1.6614 H         1 BENZYL      0.0595 
     24 H8         -2.4468   -0.6893   -0.6826 H         1 BENZYL      0.0595 
     25 H9         -2.9849    1.1585   -2.2568 H         1 BENZYL      0.0552 
     26 H10         2.0131   -2.0101    0.7287 H         1 BENZYL      0.2528 
     27 H11        -1.1293   -3.4008    0.8009 H         1 BENZYL      0.2528 
@<TRIPOS>BOND
     1    3    8 ar   
     2    3    4 ar   
     3   16    3 1    
     4    8    7 ar   
     5    7    6 ar   
     6    5    6 ar   
     7    4    5 ar   
     8    2    1 ar   
     9    1    9 ar   
    10    9   10 ar   
    11   11   10 ar   
    12   12   11 ar   
    13    2   12 ar   
    14   10   13 1    
    15   13   14 1    
    16   13   15 1    
    17    2   16 1    
    18    1   17 1    
    19    4   18 1    
    20    5   19 1    
    21    6   20 1    
    22    7   21 1    
    23    8   22 1    
    24    9   23 1    
    25   11   24 1    
    26   12   25 1    
    27   14   26 1    
    28   15   27 1    
@<TRIPOS>SUBSTRUCTURE
     1 BENZYL      2 PERM              0 ****  ****    0 ROOT 
@<TRIPOS>NORMAL
@<TRIPOS>FF_PBC
FORCE_FIELD_SETUP_FEATURE Force Field Setup information
v1.0  0 0.000000 0.000000 0.000000 0.000000 0.000000 0.000000 NONE 0 0 0 0 1 0 0 0 0 0 0 0 0
@<TRIPOS>RENDERING_ATTRS
ANTIALIASED_LINES 
*
