#	Name:			PISM01201
#	Creating user name:	14062
#	Creation time:		Sun Apr 07 00:23:24 2019

#	Modifying user name:	14062
#	Modification time:	Sun Apr 07 00:26:40 2019

@<TRIPOS>MOLECULE
PISM01201
   17    17     3     1     0
SMALL
GAST_HUCK


@<TRIPOS>ATOM
      1 O1        -11.0705    1.7874    1.0789 O.3       1 BENZYL     -0.3471 
      2 N         -13.5048    1.3541   -0.2278 N.pl3     2 NO2         0.1153 
      3 C2        -11.1157    1.5766   -0.3040 C.ar      1 BENZYL      0.0991 
      4 C3        -12.3488    1.3822   -0.9427 C.ar      1 BENZYL      0.1491 
      5 C4        -12.3779    1.2163   -2.3349 C.ar      1 BENZYL     -0.0207 
      6 C5        -11.2075    1.2311   -3.1072 C.ar      1 BENZYL      0.1083 
      7 C6         -9.9836    1.3994   -2.4465 C.ar      1 BENZYL     -0.0590 
      8 C7         -9.9379    1.5664   -1.0604 C.ar      1 BENZYL     -0.0553 
      9 O         -13.4522    1.0419    0.9411 O.2       2 NO2        -0.1160 
     10 O         -14.5361    1.6274   -0.8036 O.2       2 NO2        -0.1160 
     11 N         -11.2561    1.0844   -4.4598 N.pl3     3 NO2         0.1114 
     12 O         -12.3385    0.9357   -4.9843 O.2       3 NO2        -0.1161 
     13 O         -10.2136    1.1099   -5.0776 O.2       3 NO2        -0.1161 
     14 H1        -10.2005    1.9258    1.4369 H         1 BENZYL      0.2394 
     15 H2        -13.3348    1.0675   -2.8231 H         1 BENZYL      0.0385 
     16 H3         -9.0492    1.4038   -2.9990 H         1 BENZYL      0.0381 
     17 H4         -8.9738    1.6907   -0.5771 H         1 BENZYL      0.0472 
@<TRIPOS>BOND
     1    3    1 1    
     2    3    4 ar   
     3    3    8 ar   
     4    8    7 ar   
     5    7    6 ar   
     6    6    5 ar   
     7    5    4 ar   
     8    2    9 2    
     9    2   10 2    
    10    4    2 1    
    11   11   12 2    
    12   11   13 2    
    13    6   11 1    
    14    1   14 1    
    15    5   15 1    
    16    7   16 1    
    17    8   17 1    
@<TRIPOS>SUBSTRUCTURE
     1 BENZYL      3 PERM              0 ****  ****    2 ROOT 
     2 NO2         2 PERM              0 ****  ****    1  
     3 NO2        11 PERM              0 ****  ****    1  
@<TRIPOS>NORMAL
@<TRIPOS>FF_PBC
FORCE_FIELD_SETUP_FEATURE Force Field Setup information
v1.0  0 0.000000 0.000000 0.000000 0.000000 0.000000 0.000000 NONE 0 0 0 0 1 0 0 0 0 0 0 0 0
