#	Name:			PISM00287
#	Creating user name:	baoopengkun
#	Creation time:		Sun Dec 16 03:19:57 2018

#	Modifying user name:	baoopengkun
#	Modification time:	Sun Dec 16 03:22:32 2018

@<TRIPOS>MOLECULE
PISM00287
   50    52     1     1     0
SMALL
GAST_HUCK


@<TRIPOS>ATOM
      1 C1        -17.6752   15.3703   43.9617 C.ar      1 <1>         0.1536 
      2 C2        -18.6626   16.1558   43.3568 C.ar      1 <1>         0.0113 
      3 C3        -19.2884   17.1583   44.1040 C.ar      1 <1>         0.1536 
      4 C4        -19.0047   17.3092   45.4637 C.ar      1 <1>         0.1555 
      5 C5        -18.0683   16.4765   46.0839 C.ar      1 <1>         0.0375 
      6 C6        -17.3699   15.5408   45.3156 C.ar      1 <1>         0.1555 
      7 C7        -17.8143   16.5777   47.5904 C.3       1 <1>         0.1199 
      8 S8        -18.6984   15.2708   48.4652 S.o2      1 <1>         0.0657 
      9 O9        -18.6644   15.5999   49.8763 O.2       1 <1>        -0.1485 
     10 O10       -18.1765   13.9866   48.0521 O.2       1 <1>        -0.1485 
     11 N11       -20.2485   15.4662   47.9409 N.am      1 <1>        -0.1985 
     12 C12       -20.7462   15.2625   46.6210 C.ar      1 <1>         0.0439 
     13 C13       -20.1817   14.3220   45.7521 C.ar      1 <1>        -0.0617 
     14 C14       -20.6808   14.1593   44.4561 C.ar      1 <1>        -0.0607 
     15 C15       -21.8561   14.8074   44.0548 C.ar      1 <1>         0.0505 
     16 C16       -22.3469   15.8255   44.8801 C.ar      1 <1>        -0.0322 
     17 C17       -21.8264   16.0238   46.1631 C.ar      1 <1>        -0.0529 
     18 C18       -23.4583   16.7223   44.3380 C.3       1 <1>        -0.0077 
     19 C19       -23.2637   16.8129   42.8082 C.3       1 <1>         0.0497 
     20 C20       -23.2025   15.4098   42.2671 C.2       1 <1>         0.1999 
     21 O21       -23.8088   15.1823   41.2325 O.2       1 <1>        -0.3812 
     22 N22       -22.5228   14.4897   42.9088 N.pl3     1 <1>        -0.2378 
     23 C23       -22.5605   13.1121   42.3906 C.3       1 <1>         0.0446 
     24 C24       -23.9448   12.4888   42.7189 C.3       1 <1>        -0.0331 
     25 C25       -24.0533   11.0269   42.2110 C.3       1 <1>        -0.0632 
     26 F26       -16.4145   14.8071   45.8796 F         1 <1>        -0.1961 
     27 F27       -17.0228   14.4546   43.2499 F         1 <1>        -0.1962 
     28 C28       -19.0726   15.9336   41.8961 C.3       1 <1>        -0.0345 
     29 F29       -20.1600   17.9742   43.5192 F         1 <1>        -0.1962 
     30 F30       -19.6358   18.2442   46.1700 F         1 <1>        -0.1961 
     31 H1        -16.7408   16.4804   47.8110 H         1 <1>         0.0657 
     32 H2        -18.1594   17.5440   47.9869 H         1 <1>         0.0657 
     33 H3        -20.8844   15.8291   48.6231 H         1 <1>         0.2114 
     34 H4        -19.3538   13.7000   46.0603 H         1 <1>         0.0398 
     35 H5        -20.1244   13.5301   43.7713 H         1 <1>         0.0470 
     36 H6        -22.2616   16.7802   46.8073 H         1 <1>         0.0392 
     37 H7        -23.4129   17.7295   44.7828 H         1 <1>         0.0425 
     38 H8        -24.4301   16.2635   44.5808 H         1 <1>         0.0425 
     39 H9        -22.3280   17.3289   42.5522 H         1 <1>         0.0529 
     40 H10       -24.1017   17.3672   42.3559 H         1 <1>         0.0529 
     41 H11       -21.8138   12.4365   42.8280 H         1 <1>         0.0550 
     42 H12       -22.3923   13.1123   41.3007 H         1 <1>         0.0550 
     43 H13       -24.7505   13.0824   42.2580 H         1 <1>         0.0284 
     44 H14       -24.0912   12.5094   43.8118 H         1 <1>         0.0284 
     45 H15       -23.2878   10.3928   42.6850 H         1 <1>         0.0230 
     46 H16       -23.9166   10.9909   41.1190 H         1 <1>         0.0230 
     47 H17       -25.0457   10.6148   42.4536 H         1 <1>         0.0230 
     48 H18       -20.1696   15.9440   41.8104 H         1 <1>         0.0361 
     49 H19       -18.7088   14.9687   41.5125 H         1 <1>         0.0361 
     50 H20       -18.6569   16.7437   41.2786 H         1 <1>         0.0361 
@<TRIPOS>BOND
     1    2    1 ar   
     2    2    3 ar   
     3    3    4 ar   
     4    4    5 ar   
     5    5    6 ar   
     6    1    6 ar   
     7    5    7 1    
     8    7    8 1    
     9    8    9 2    
    10    8   10 2    
    11    8   11 1    
    12   11   12 1    
    13   12   13 ar   
    14   13   14 ar   
    15   14   15 ar   
    16   15   16 ar   
    17   16   17 ar   
    18   12   17 ar   
    19   16   18 1    
    20   18   19 1    
    21   19   20 1    
    22   20   21 2    
    23   20   22 1    
    24   15   22 1    
    25   22   23 1    
    26   23   24 1    
    27   24   25 1    
    28    6   26 1    
    29    1   27 1    
    30    2   28 1    
    31    3   29 1    
    32    4   30 1    
    33    7   31 1    
    34    7   32 1    
    35   11   33 1    
    36   13   34 1    
    37   14   35 1    
    38   17   36 1    
    39   18   37 1    
    40   18   38 1    
    41   19   39 1    
    42   19   40 1    
    43   23   41 1    
    44   23   42 1    
    45   24   43 1    
    46   24   44 1    
    47   25   45 1    
    48   25   46 1    
    49   25   47 1    
    50   28   48 1    
    51   28   49 1    
    52   28   50 1    
@<TRIPOS>SUBSTRUCTURE
     1 ****        2 TEMP              0 ****  ****    0 ROOT 
@<TRIPOS>NORMAL
@<TRIPOS>FF_PBC
FORCE_FIELD_SETUP_FEATURE Force Field Setup information
v1.0  0 0.000000 0.000000 0.000000 0.000000 0.000000 0.000000 NONE 0 0 0 0 1 0 0 0 0 0 0 0 0
