#	Name:			PISM00631
#	Creating user name:	baoopengkun
#	Creation time:		Mon Dec 10 11:10:40 2018

#	Modifying user name:	baoopengkun
#	Modification time:	Mon Dec 10 11:10:52 2018

@<TRIPOS>MOLECULE
PISM00631
   50    54     1     2     0
SMALL
GAST_HUCK


@<TRIPOS>ATOM
      1 C1         14.2585   -2.5410  -29.2826 C.ar      1 <1>        -0.0348 
      2 C2         14.4093   -3.8073  -28.7101 C.ar      1 <1>        -0.0180 
      3 C3         13.8910   -4.9328  -29.3560 C.ar      1 <1>         0.0714 
      4 C4         13.1960   -4.7887  -30.5593 C.ar      1 <1>        -0.0180 
      5 C5         13.0656   -3.5250  -31.1426 C.ar      1 <1>        -0.0348 
      6 C6         13.6252   -2.4033  -30.5220 C.ar      1 <1>         0.0068 
      7 C7         13.5393   -1.0345  -31.2081 C.3       1 <1>         0.1921 
      8 C8         12.1534   -0.4101  -30.9327 C.3       1 <1>         0.1073 
      9 N9         11.8627   -0.4045  -29.5050 N.pl3     1 <1>        -0.1814 
     10 N10        12.0551    0.6307  -28.6402 N.2       1 <1>        -0.1908 
     11 C11        11.6801    0.3651  -27.4443 C.2       1 <1>         0.0618 
     12 N12        11.1984   -0.9791  -27.6055 N.2       1 <1>        -0.2870 
     13 C13        11.3254   -1.3509  -28.7971 C.2       1 <1>         0.1270 
     14 O14        14.5997   -0.1409  -30.8410 O.3       1 <1>        -0.3814 
     15 C15        15.7817   -0.6165  -31.4908 C.3       1 <1>         0.0672 
     16 C16        15.2090   -1.1714  -32.8186 C.3       1 <1>         0.1007 
     17 O17        13.7852   -1.1550  -32.6166 O.3       1 <1>        -0.3757 
     18 C18        15.7459   -2.5823  -33.1812 C.3       1 <1>         0.0996 
     19 O19        15.6229   -3.4848  -32.0685 O.3       1 <1>        -0.3104 
     20 C20        16.0080   -4.8028  -32.3140 C.ar      1 <1>         0.1044 
     21 C21        15.1529   -5.6476  -33.0256 C.ar      1 <1>        -0.0340 
     22 C22        15.5206   -6.9727  -33.2686 C.ar      1 <1>        -0.0744 
     23 C23        16.7468   -7.4506  -32.7987 C.ar      1 <1>        -0.0685 
     24 C24        17.6100   -6.6073  -32.0883 C.ar      1 <1>        -0.0261 
     25 C25        17.2386   -5.2778  -31.8439 C.ar      1 <1>         0.0178 
     26 C26        18.1022   -4.4369  -31.1314 C.ar      1 <1>        -0.0532 
     27 C27        19.3346   -4.9115  -30.6747 C.ar      1 <1>        -0.0633 
     28 C28        19.7041   -6.2364  -30.9186 C.ar      1 <1>        -0.0640 
     29 Cl29       14.1124   -6.5240  -28.6582 Cl        1 <1>        -0.0420 
     30 H1         14.6339   -1.6642  -28.7641 H         1 <1>         0.0849 
     31 H2         14.9287   -3.9188  -27.7641 H         1 <1>         0.0703 
     32 H3         12.7621   -5.6588  -31.0411 H         1 <1>         0.0703 
     33 H4         12.5361   -3.4150  -32.0835 H         1 <1>         0.0849 
     34 H5         11.3817   -0.9794  -31.4727 H         1 <1>         0.0595 
     35 H6         12.1540    0.6225  -31.3120 H         1 <1>         0.0595 
     36 H7         11.7163    0.9902  -26.5534 H         1 <1>         0.0863 
     37 H8         11.0210   -2.3309  -29.1630 H         1 <1>         0.1361 
     38 H9         16.2407   -1.4014  -30.8723 H         1 <1>         0.0576 
     39 H10        16.5104    0.1974  -31.6276 H         1 <1>         0.0576 
     40 H11        15.4029   -0.4743  -33.6505 H         1 <1>         0.0636 
     41 H12        16.8087   -2.5065  -33.4622 H         1 <1>         0.0645 
     42 H13        15.1727   -2.9511  -34.0464 H         1 <1>         0.0645 
     43 H14        14.2010   -5.2740  -33.3875 H         1 <1>         0.0499 
     44 H15        14.8551   -7.6297  -33.8210 H         1 <1>         0.0581 
     45 H16        17.0214   -8.4831  -32.9922 H         1 <1>         0.0493 
     46 C46        18.8421   -7.0820  -31.6219 C.ar      1 <1>        -0.0587 
     47 H17        17.8265   -3.4087  -30.9248 H         1 <1>         0.0631 
     48 H18        20.0041   -4.2516  -30.1311 H         1 <1>         0.0591 
     49 H19        20.6600   -6.6080  -30.5610 H         1 <1>         0.0614 
     50 H20        19.1406   -8.1102  -31.8020 H         1 <1>         0.0599 
@<TRIPOS>BOND
     1    1    2 ar   
     2    2    3 ar   
     3    3    4 ar   
     4    4    5 ar   
     5    5    6 ar   
     6    6    1 ar   
     7    6    7 1    
     8    7    8 1    
     9    8    9 1    
    10    9   10 1    
    11   10   11 2    
    12   11   12 1    
    13   12   13 2    
    14    9   13 1    
    15    7   14 1    
    16   14   15 1    
    17   15   16 1    
    18   16   17 1    
    19   17    7 1    
    20   16   18 1    
    21   18   19 1    
    22   19   20 1    
    23   20   21 ar   
    24   21   22 ar   
    25   22   23 ar   
    26   23   24 ar   
    27   24   25 ar   
    28   25   20 ar   
    29   25   26 ar   
    30   26   27 ar   
    31   27   28 ar   
    32    3   29 1    
    33    1   30 1    
    34    2   31 1    
    35    4   32 1    
    36    5   33 1    
    37    8   34 1    
    38    8   35 1    
    39   11   36 1    
    40   13   37 1    
    41   15   38 1    
    42   15   39 1    
    43   16   40 1    
    44   18   41 1    
    45   18   42 1    
    46   21   43 1    
    47   22   44 1    
    48   23   45 1    
    49   28   46 ar   
    50   24   46 ar   
    51   26   47 1    
    52   27   48 1    
    53   28   49 1    
    54   46   50 1    
@<TRIPOS>SUBSTRUCTURE
     1 ****       25 TEMP              0 ****  ****    0 ROOT 
@<TRIPOS>NORMAL
@<TRIPOS>FF_PBC
FORCE_FIELD_SETUP_FEATURE Force Field Setup information
v1.0  0 0.000000 0.000000 0.000000 0.000000 0.000000 0.000000 NONE 0 0 0 0 1 0 0 0 0 0 0 0 0
@<TRIPOS>RENDERING_ATTRS
ANTIALIASED_LINES 
*
