#	Name:			PISM00665
#	Creating user name:	baoopengkun
#	Creation time:		Sun Jan 20 22:57:20 2019

#	Modifying user name:	baoopengkun
#	Modification time:	Sun Jan 20 22:57:54 2019

@<TRIPOS>MOLECULE
PISM00665
   51    54     1     2     0
SMALL
GAST_HUCK


@<TRIPOS>ATOM
      1 C1        -13.4455   16.8257  -14.1286 C.ar      1 <1>        -0.0404 
      2 C2        -14.3460   17.7716  -13.6298 C.ar      1 <1>        -0.0286 
      3 C3        -14.0218   18.5299  -12.4990 C.ar      1 <1>        -0.0144 
      4 C4        -12.7633   18.3725  -11.9084 C.ar      1 <1>        -0.0286 
      5 C5        -11.8592   17.4345  -12.4140 C.ar      1 <1>        -0.0404 
      6 C6        -12.2072   16.6350  -13.5078 C.ar      1 <1>        -0.0015 
      7 C7        -11.2436   15.5520  -14.0131 C.3       1 <1>         0.1854 
      8 C8        -10.3206   16.1393  -15.1066 C.3       1 <1>         0.1039 
      9 N9         -9.4831   15.1163  -15.7141 N.pl3     1 <1>        -0.1823 
     10 N10        -8.1369   14.9664  -15.5664 N.2       1 <1>        -0.1909 
     11 C11        -7.6644   13.9850  -16.2413 C.2       1 <1>         0.0618 
     12 N12        -8.8572   13.4911  -16.8730 N.2       1 <1>        -0.2870 
     13 C13        -9.8501   14.1794  -16.5335 C.2       1 <1>         0.1269 
     14 O14       -11.9768   14.4024  -14.4833 O.3       1 <1>        -0.3860 
     15 C15       -11.4895   13.2539  -13.7718 C.3       1 <1>         0.0659 
     16 C16       -11.1437   13.8869  -12.4109 C.3       1 <1>         0.0987 
     17 O17       -10.4747   15.0496  -12.9105 O.3       1 <1>        -0.3805 
     18 C18       -12.4208   14.2116  -11.5858 C.3       1 <1>         0.0951 
     19 O19       -12.1046   15.2183  -10.6068 O.3       1 <1>        -0.3192 
     20 C20       -13.0973   15.6356   -9.7138 C.ar      1 <1>         0.1202 
     21 C21       -14.3457   16.0785  -10.1670 C.ar      1 <1>        -0.0415 
     22 C22       -15.3186   16.4932   -9.2525 C.ar      1 <1>        -0.0819 
     23 C23       -15.0498   16.4659   -7.8814 C.ar      1 <1>        -0.0819 
     24 C24       -13.8028   16.0292   -7.4268 C.ar      1 <1>        -0.0411 
     25 C25       -12.8266   15.6263   -8.3419 C.ar      1 <1>         0.1290 
     26 O26       -11.5771   15.2160   -7.8834 O.3       1 <1>        -0.2300 
     27 C27       -10.6515   16.3086   -7.8181 C.3       1 <1>         0.5442 
     28 F28        -9.4560   15.8350   -7.3777 F         1 <1>        -0.1403 
     29 F29       -11.1062   17.2473   -6.9438 F         1 <1>        -0.1403 
     30 F30       -10.4835   16.8805   -9.0414 F         1 <1>        -0.1403 
     31 C31       -15.0296   19.5194  -11.9020 C.3       1 <1>        -0.0157 
     32 H32       -13.7104   16.2346  -14.9997 H         1 <1>         0.0834 
     33 H2        -15.3011   17.9122  -14.1259 H         1 <1>         0.0652 
     34 H3        -12.4832   18.9769  -11.0513 H         1 <1>         0.0652 
     35 H4        -10.8849   17.3246  -11.9474 H         1 <1>         0.0834 
     36 H5         -9.6781   16.9116  -14.6581 H         1 <1>         0.0584 
     37 H6        -10.9369   16.6028  -15.8917 H         1 <1>         0.0584 
     38 H7         -6.6389   13.6264  -16.3155 H         1 <1>         0.0863 
     39 H8        -10.8680   14.0062  -16.8809 H         1 <1>         0.1361 
     40 H9        -10.5705   12.8738  -14.2476 H         1 <1>         0.0575 
     41 H10       -12.2347   12.4462  -13.7153 H         1 <1>         0.0575 
     42 H11       -10.4432   13.2871  -11.8070 H         1 <1>         0.0634 
     43 H12       -12.7686   13.2957  -11.0820 H         1 <1>         0.0635 
     44 H13       -13.2184   14.5502  -12.2607 H         1 <1>         0.0635 
     45 H14       -14.5735   16.1130  -11.2245 H         1 <1>         0.0509 
     46 H15       -16.2854   16.8378   -9.6075 H         1 <1>         0.0495 
     47 H16       -15.8071   16.7842   -7.1707 H         1 <1>         0.0495 
     48 H17       -13.5879   16.0029   -6.3634 H         1 <1>         0.0509 
     49 H1        -16.0608   19.2541  -12.1801 H         1 <1>         0.0464 
     50 H18       -14.8056   20.5292  -12.2766 H         1 <1>         0.0464 
     51 H19       -14.9596   19.5184  -10.8034 H         1 <1>         0.0464 
@<TRIPOS>BOND
     1    2    1 ar   
     2    2    3 ar   
     3    3    4 ar   
     4    4    5 ar   
     5    5    6 ar   
     6    1    6 ar   
     7    6    7 1    
     8    7    8 1    
     9    8    9 1    
    10    9   10 1    
    11   10   11 2    
    12   11   12 1    
    13   12   13 2    
    14    9   13 1    
    15    7   14 1    
    16   14   15 1    
    17   15   16 1    
    18   16   17 1    
    19    7   17 1    
    20   16   18 1    
    21   18   19 1    
    22   19   20 1    
    23   20   21 ar   
    24   21   22 ar   
    25   22   23 ar   
    26   23   24 ar   
    27   24   25 ar   
    28   20   25 ar   
    29   25   26 1    
    30   26   27 1    
    31   27   28 1    
    32   27   29 1    
    33   27   30 1    
    34    3   31 1    
    35    1   32 1    
    36    2   33 1    
    37    4   34 1    
    38    5   35 1    
    39    8   36 1    
    40    8   37 1    
    41   11   38 1    
    42   13   39 1    
    43   15   40 1    
    44   15   41 1    
    45   16   42 1    
    46   18   43 1    
    47   18   44 1    
    48   21   45 1    
    49   22   46 1    
    50   23   47 1    
    51   24   48 1    
    52   31   49 1    
    53   31   50 1    
    54   31   51 1    
@<TRIPOS>SUBSTRUCTURE
     1 ****        2 TEMP              0 ****  ****    0 ROOT 
@<TRIPOS>NORMAL
@<TRIPOS>FF_PBC
FORCE_FIELD_SETUP_FEATURE Force Field Setup information
v1.0  0 0.000000 0.000000 0.000000 0.000000 0.000000 0.000000 NONE 0 0 0 0 1 0 0 0 0 0 0 0 0
@<TRIPOS>RENDERING_ATTRS
ANTIALIASED_LINES 
*
