#	Name:			PISM00744
#	Creating user name:	baoopengkun
#	Creation time:		Thu Jan 24 23:33:08 2019

#	Modifying user name:	baoopengkun
#	Modification time:	Thu Jan 24 23:33:36 2019

@<TRIPOS>MOLECULE
PISM00744
   89    92     1     1     0
SMALL
GAST_HUCK


@<TRIPOS>ATOM
      1 C1         -8.7883   18.0014   -3.8746 C.3       1 <1>        -0.0163 
      2 C2        -10.3232   18.2587   -3.8055 C.3       1 <1>         0.0821 
      3 C3        -11.0151   17.2168   -2.8837 C.3       1 <1>         0.0866 
      4 C4        -10.3875   17.2950   -1.4636 C.3       1 <1>        -0.0026 
      5 C5         -8.8711   16.9694   -1.5736 C.3       1 <1>         0.0682 
      6 C6         -8.0841   17.9807   -2.4794 C.3       1 <1>        -0.0055 
      7 C7         -6.5662   17.5466   -2.5882 C.3       1 <1>        -0.0276 
      8 C8         -6.3531   15.9977   -2.6017 C.3       1 <1>        -0.0063 
      9 C9         -6.5343   15.3938   -1.1650 C.3       1 <1>         0.0801 
     10 O10        -6.9992   16.2572   -0.0987 O.3       1 <1>        -0.2763 
     11 C11        -8.1876   16.8716   -0.2348 C.2       1 <1>         0.2374 
     12 O12        -8.7037   17.3761    0.7480 O.2       1 <1>        -0.3701 
     13 C13        -5.7590   18.2064   -3.7485 C.3       1 <1>        -0.0487 
     14 C14        -4.2189   17.9749   -3.5884 C.3       1 <1>        -0.0468 
     15 C15        -3.8107   16.5336   -3.1134 C.3       1 <1>        -0.0257 
     16 C16        -5.0361   15.6106   -3.3597 C.3       1 <1>        -0.0298 
     17 C17        -4.5139   14.1568   -3.2684 C.3       1 <1>        -0.0491 
     18 C18        -3.0402   14.2827   -3.7523 C.3       1 <1>        -0.0491 
     19 C19        -2.7412   15.7979   -4.0013 C.3       1 <1>        -0.0304 
     20 O20       -10.9059   18.1692   -5.1214 O.3       1 <1>        -0.3892 
     21 O21       -10.8350   15.9197   -3.5028 O.3       1 <1>        -0.3771 
     22 C22         1.7989   12.8627   -5.4823 C.3       1 <1>         0.0686 
     23 C23        -8.1185   19.4202   -1.8512 C.3       1 <1>        -0.0568 
     24 C24        -3.3545   16.5366   -1.6186 C.3       1 <1>        -0.0590 
     25 C25        -1.2151   16.1458   -3.8436 C.3       1 <1>        -0.0120 
     26 C26        -0.3571   15.2267   -4.7902 C.3       1 <1>         0.0842 
     27 C27         1.1873   15.4311   -4.7764 C.3       1 <1>         0.0865 
     28 C28         2.0286   14.4195   -5.6471 C.3       1 <1>         0.0132 
     29 C29       -11.5968   14.8442   -2.9190 C.3       1 <1>         0.0369 
     30 C30         1.9194   12.4362   -3.9922 C.3       1 <1>        -0.0358 
     31 C31         0.4674   12.2927   -6.0752 C.3       1 <1>        -0.0358 
     32 C32        -0.9356   17.6630   -4.0485 C.3       1 <1>        -0.0597 
     33 O33        -0.8407   15.2264   -6.1431 O.3       1 <1>        -0.3890 
     34 O34         1.3879   16.7576   -5.3080 O.3       1 <1>        -0.3889 
     35 C35         3.5461   14.7632   -5.4546 C.3       1 <1>        -0.0574 
     36 H1         -8.3476   18.7874   -4.5066 H         1 <1>         0.0298 
     37 H2         -8.6393   17.0382   -4.3850 H         1 <1>         0.0298 
     38 H3        -10.5413   19.2706   -3.4260 H         1 <1>         0.0619 
     39 O39         2.8754   12.1105   -6.1057 O.3       1 <1>        -0.3768 
     40 C40         2.9949   12.1965   -7.5459 C.3       1 <1>         0.0371 
     41 H4        -12.0892   17.4682   -2.8455 H         1 <1>         0.0623 
     42 H5        -10.8763   16.5732   -0.7918 H         1 <1>         0.0319 
     43 H6        -10.5707   18.2801   -1.0146 H         1 <1>         0.0319 
     44 H7         -8.8986   15.9565   -1.9909 H         1 <1>         0.0560 
     45 H8         -6.0635   17.9195   -1.6850 H         1 <1>         0.0311 
     46 H9         -7.1243   15.5456   -3.2469 H         1 <1>         0.0332 
     47 H10        -5.5644   15.0977   -0.7519 H         1 <1>         0.0616 
     48 H11        -7.1465   14.4767   -1.1922 H         1 <1>         0.0616 
     49 H12        -5.9188   19.2938   -3.7971 H         1 <1>         0.0268 
     50 H13        -6.1102   17.8041   -4.7115 H         1 <1>         0.0268 
     51 H14        -3.8530   18.7160   -2.8584 H         1 <1>         0.0271 
     52 H15        -3.7560   18.2185   -4.5583 H         1 <1>         0.0271 
     53 H16        -5.2553   15.7081   -4.4408 H         1 <1>         0.0310 
     54 H17        -5.1074   13.4696   -3.8958 H         1 <1>         0.0268 
     55 H18        -4.5350   13.7558   -2.2460 H         1 <1>         0.0268 
     56 H19        -2.8813   13.6921   -4.6711 H         1 <1>         0.0268 
     57 H20        -2.3778   13.8766   -2.9694 H         1 <1>         0.0268 
     58 H21        -2.9922   16.0107   -5.0547 H         1 <1>         0.0310 
     59 H22       -10.5418   18.7903   -5.7442 H         1 <1>         0.2099 
     60 H23        -9.1208   19.8428   -1.7313 H         1 <1>         0.0237 
     61 H24        -7.5672   20.1406   -2.4690 H         1 <1>         0.0237 
     62 H25        -7.6598   19.4248   -0.8508 H         1 <1>         0.0237 
     63 H26        -3.1057   15.5285   -1.2599 H         1 <1>         0.0235 
     64 H27        -4.1180   16.9537   -0.9523 H         1 <1>         0.0235 
     65 H28        -2.4620   17.1626   -1.4840 H         1 <1>         0.0235 
     66 H29        -0.9124   15.9142   -2.8085 H         1 <1>         0.0327 
     67 H30        -0.5107   14.2296   -4.3831 H         1 <1>         0.0622 
     68 H31         1.5055   15.3915   -3.7197 H         1 <1>         0.0623 
     69 H32         1.7696   14.6551   -6.6912 H         1 <1>         0.0352 
     70 H33       -11.4454   13.9629   -3.5593 H         1 <1>         0.0524 
     71 H34       -12.6736   15.0726   -2.9010 H         1 <1>         0.0524 
     72 H35       -11.2589   14.5804   -1.9073 H         1 <1>         0.0524 
     73 H36         1.8088   11.3436   -3.9111 H         1 <1>         0.0257 
     74 H37         1.1518   12.9011   -3.3596 H         1 <1>         0.0257 
     75 H38         2.9076   12.7037   -3.5909 H         1 <1>         0.0257 
     76 H39         0.1932   12.8105   -7.0062 H         1 <1>         0.0257 
     77 H40        -0.3917   12.3228   -5.3972 H         1 <1>         0.0257 
     78 H41         0.6009   11.2234   -6.3008 H         1 <1>         0.0257 
     79 H42         0.0906   17.9212   -3.7539 H         1 <1>         0.0233 
     80 H43        -1.5761   18.2832   -3.4142 H         1 <1>         0.0233 
     81 H44        -1.0991   17.9575   -5.0950 H         1 <1>         0.0233 
     82 H45        -0.6620   16.0586   -6.5682 H         1 <1>         0.2099 
     83 H46         2.2423   17.1387   -5.1394 H         1 <1>         0.2099 
     84 H47         4.2317   14.0158   -5.8754 H         1 <1>         0.0234 
     85 H48         3.7914   14.8555   -4.3862 H         1 <1>         0.0234 
     86 H49         3.8100   15.7095   -5.9491 H         1 <1>         0.0234 
     87 H50         2.1400   11.7600   -8.0808 H         1 <1>         0.0524 
     88 H51         3.8817   11.6018   -7.8098 H         1 <1>         0.0524 
     89 H52         3.1623   13.2170   -7.9166 H         1 <1>         0.0524 
@<TRIPOS>BOND
     1    1    2 1    
     2    2    3 1    
     3    4    3 1    
     4    5    4 1    
     5    6    5 1    
     6    6    1 1    
     7    7    6 1    
     8    8    7 1    
     9    8    9 1    
    10    9   10 1    
    11   10   11 1    
    12   11   12 2    
    13   11    5 1    
    14   13    7 1    
    15   14   13 1    
    16   15   14 1    
    17   15   16 1    
    18   16    8 1    
    19   16   17 1    
    20   18   17 1    
    21   19   18 1    
    22   19   15 1    
    23    2   20 1    
    24    3   21 1    
    25   28   22 1    
    26    6   23 1    
    27   15   24 1    
    28   25   19 1    
    29   26   25 1    
    30   27   26 1    
    31   27   28 1    
    32   21   29 1    
    33   22   30 1    
    34   22   31 1    
    35   25   32 1    
    36   26   33 1    
    37   27   34 1    
    38   28   35 1    
    39    1   36 1    
    40    1   37 1    
    41    2   38 1    
    42   22   39 1    
    43   39   40 1    
    44    3   41 1    
    45    4   42 1    
    46    4   43 1    
    47    5   44 1    
    48    7   45 1    
    49    8   46 1    
    50    9   47 1    
    51    9   48 1    
    52   13   49 1    
    53   13   50 1    
    54   14   51 1    
    55   14   52 1    
    56   16   53 1    
    57   17   54 1    
    58   17   55 1    
    59   18   56 1    
    60   18   57 1    
    61   19   58 1    
    62   20   59 1    
    63   23   60 1    
    64   23   61 1    
    65   23   62 1    
    66   24   63 1    
    67   24   64 1    
    68   24   65 1    
    69   25   66 1    
    70   26   67 1    
    71   27   68 1    
    72   28   69 1    
    73   29   70 1    
    74   29   71 1    
    75   29   72 1    
    76   30   73 1    
    77   30   74 1    
    78   30   75 1    
    79   31   76 1    
    80   31   77 1    
    81   31   78 1    
    82   32   79 1    
    83   32   80 1    
    84   32   81 1    
    85   33   82 1    
    86   34   83 1    
    87   35   84 1    
    88   35   85 1    
    89   35   86 1    
    90   40   87 1    
    91   40   88 1    
    92   40   89 1    
@<TRIPOS>SUBSTRUCTURE
     1 ****        2 TEMP              0 ****  ****    0 ROOT 
@<TRIPOS>NORMAL
@<TRIPOS>FF_PBC
FORCE_FIELD_SETUP_FEATURE Force Field Setup information
v1.0  0 0.000000 0.000000 0.000000 0.000000 0.000000 0.000000 NONE 0 0 0 0 1 0 0 0 0 0 0 0 0
