#	Name:			PISM00192
#	Creating user name:	14062
#	Creation time:		Wed Jun 19 15:12:34 2019

#	Modifying user name:	14062
#	Modification time:	Wed Jun 19 15:15:31 2019

@<TRIPOS>MOLECULE
PISM00192
   30    31     1     1     0
SMALL
GAST_HUCK


@<TRIPOS>ATOM
      1 C1         -7.0660    0.1178   -0.4132 C.ar      1 BENZYL     -0.0701 
      2 C1         -5.7912    0.6459   -0.2108 C.ar      1 BENZYL     -0.0627 
      3 C2         -4.9440    0.8674   -1.3022 C.ar      1 BENZYL     -0.0239 
      4 C3         -5.3761    0.5735   -2.6060 C.ar      1 BENZYL     -0.0096 
      5 C4         -4.4406    0.6789   -3.6477 C.ar      1 BENZYL     -0.0546 
      6 C5         -3.1620    1.1966   -3.4230 C.ar      1 BENZYL     -0.0625 
      7 C6         -2.7726    1.5632   -2.1344 C.ar      1 BENZYL     -0.0629 
      8 C7         -3.6613    1.3815   -1.0736 C.ar      1 BENZYL     -0.0568 
      9 C9         -6.7115    0.1829   -2.8192 C.ar      1 BENZYL     -0.0094 
     10 C10        -7.5129   -0.1258   -1.7123 C.ar      1 BENZYL     -0.0580 
     11 C11        -7.3444    0.0845   -4.2240 C.3       1 BENZYL      0.0947 
     12 C12        -8.7875    0.5371   -4.2280 C.2       1 BENZYL      0.2469 
     13 O13        -9.0934    1.7007   -4.4362 O.2       1 BENZYL     -0.3669 
     14 O14        -9.7140   -0.3962   -4.0023 O.3       1 BENZYL     -0.2909 
     15 C15        -7.1757   -1.3548   -4.7867 C.3       1 BENZYL     -0.0245 
     16 H1         -7.7072   -0.1004    0.4358 H         1 BENZYL      0.0596 
     17 H2         -5.4691    0.8751    0.8005 H         1 BENZYL      0.0546 
     18 H3         -4.6677    0.3569   -4.6558 H         1 BENZYL      0.0628 
     19 H4         -2.4675    1.3128   -4.2500 H         1 BENZYL      0.0602 
     20 H5         -1.7864    1.9822   -1.9585 H         1 BENZYL      0.0616 
     21 H6         -3.3408    1.6444   -0.0700 H         1 BENZYL      0.0609 
     22 H7         -8.4974   -0.5601   -1.8421 H         1 BENZYL      0.0535 
     23 H8         -6.8606    0.8038   -4.9006 H         1 BENZYL      0.0722 
     24 H9        -10.5886   -0.0237   -4.0259 H         1 BENZYL      0.2541 
     25 C25        -7.6586   -1.4677   -6.2570 C.3       1 BENZYL     -0.0610 
     26 H11        -7.7396   -2.0621   -4.1565 H         1 BENZYL      0.0314 
     27 H12        -6.1137   -1.6465   -4.7436 H         1 BENZYL      0.0314 
     28 H10        -7.0855   -0.7837   -6.9023 H         1 BENZYL      0.0233 
     29 H13        -8.7275   -1.2197   -6.3427 H         1 BENZYL      0.0233 
     30 H14        -7.5120   -2.4964   -6.6227 H         1 BENZYL      0.0233 
@<TRIPOS>BOND
     1    2    3 ar   
     2    3    4 ar   
     3    3    8 ar   
     4    8    7 ar   
     5    7    6 ar   
     6    6    5 ar   
     7    5    4 ar   
     8    2    1 ar   
     9    4    9 ar   
    10    9   10 ar   
    11    1   10 ar   
    12    9   11 1    
    13   11   12 1    
    14   12   13 2    
    15   12   14 1    
    16   11   15 1    
    17    1   16 1    
    18    2   17 1    
    19    5   18 1    
    20    6   19 1    
    21    7   20 1    
    22    8   21 1    
    23   10   22 1    
    24   11   23 1    
    25   14   24 1    
    26   15   25 1    
    27   15   26 1    
    28   15   27 1    
    29   25   28 1    
    30   25   29 1    
    31   25   30 1    
@<TRIPOS>SUBSTRUCTURE
     1 BENZYL      2 PERM              0 ****  ****    0 ROOT 
@<TRIPOS>NORMAL
@<TRIPOS>FF_PBC
FORCE_FIELD_SETUP_FEATURE Force Field Setup information
v1.0  0 0.000000 0.000000 0.000000 0.000000 0.000000 0.000000 NONE 0 0 0 0 1 0 0 0 0 0 0 0 0
