#	Name:			PISM00846
#	Creating user name:	baoopengkun
#	Creation time:		Thu Dec 13 14:40:19 2018

#	Modifying user name:	baoopengkun
#	Modification time:	Thu Dec 13 15:03:44 2018

@<TRIPOS>MOLECULE
PISM00846
   30    31     1     1     0
SMALL
GAST_HUCK


@<TRIPOS>ATOM
      1 C1         -7.0200   22.5506    5.3785 C.ar      1 <1>        -0.0262 
      2 C2         -6.8497   22.5890    3.9915 C.ar      1 <1>        -0.0491 
      3 C3         -6.6595   21.4050    3.2690 C.ar      1 <1>         0.0506 
      4 C4         -6.6355   20.1822    3.9502 C.ar      1 <1>        -0.0491 
      5 C5         -6.8040   20.1426    5.3375 C.ar      1 <1>        -0.0262 
      6 C6         -7.0038   21.3266    6.0513 C.ar      1 <1>         0.1037 
      7 C7         -6.4812   21.4442    1.7656 C.2       1 <1>         0.2545 
      8 O8         -7.1874   21.2871    7.4315 O.3       1 <1>        -0.2671 
      9 C9         -8.5695   21.1932    7.7983 C.3       1 <1>         0.2369 
     10 C10        -8.6687   21.3055    9.2993 C.2       1 <1>        -0.0017 
     11 C11        -9.3495   22.3973    9.6420 C.2       1 <1>         0.0292 
     12 C12        -9.7046   22.9948    8.3593 C.2       1 <1>         0.2495 
     13 O13        -9.2966   22.3289    7.2867 O.3       1 <1>        -0.2311 
     14 C14        -9.6765   22.8919   11.0245 C.3       1 <1>        -0.0323 
     15 O15       -10.3381   24.0322    8.2698 O.2       1 <1>        -0.3691 
     16 O16        -6.4949   22.5202    1.1875 O.2       1 <1>        -0.3624 
     17 O17        -6.3112   20.2948    1.0935 O.3       1 <1>        -0.2824 
     18 C18        -6.1543   20.4642   -0.3293 C.3       1 <1>         0.0645 
     19 H1         -7.1666   23.4691    5.9377 H         1 <1>         0.0557 
     20 H2         -6.8666   23.5453    3.4779 H         1 <1>         0.0645 
     21 H3         -6.4854   19.2559    3.4045 H         1 <1>         0.0645 
     22 H4         -6.7806   19.1945    5.8648 H         1 <1>         0.0557 
     23 H5         -9.0251   20.2537    7.4433 H         1 <1>         0.1201 
     24 H6         -8.2364   20.5932   10.0009 H         1 <1>         0.0705 
     25 H7        -10.2878   23.8052   10.9691 H         1 <1>         0.0347 
     26 H8         -8.7465   23.1170   11.5673 H         1 <1>         0.0347 
     27 H9        -10.2372   22.1204   11.5728 H         1 <1>         0.0347 
     28 H10        -5.2637   21.0691   -0.5643 H         1 <1>         0.0575 
     29 H11        -7.0454   20.9324   -0.7776 H         1 <1>         0.0575 
     30 H12        -6.0245   19.4673   -0.7753 H         1 <1>         0.0575 
@<TRIPOS>BOND
     1    2    1 ar   
     2    2    3 ar   
     3    3    4 ar   
     4    4    5 ar   
     5    5    6 ar   
     6    1    6 ar   
     7    3    7 1    
     8    6    8 1    
     9    8    9 1    
    10    9   10 1    
    11   10   11 2    
    12   11   12 1    
    13   12   13 1    
    14    9   13 1    
    15   11   14 1    
    16   12   15 2    
    17    7   16 2    
    18    7   17 1    
    19   17   18 1    
    20    1   19 1    
    21    2   20 1    
    22    4   21 1    
    23    5   22 1    
    24    9   23 1    
    25   10   24 1    
    26   14   25 1    
    27   14   26 1    
    28   14   27 1    
    29   18   28 1    
    30   18   29 1    
    31   18   30 1    
@<TRIPOS>SUBSTRUCTURE
     1 ****        2 TEMP              0 ****  ****    0 ROOT 
@<TRIPOS>NORMAL
@<TRIPOS>FF_PBC
FORCE_FIELD_SETUP_FEATURE Force Field Setup information
v1.0  0 0.000000 0.000000 0.000000 0.000000 0.000000 0.000000 NONE 0 0 0 0 1 0 0 0 0 0 0 0 0
