#	Name:			PISM00164
#	Creating user name:	14062
#	Creation time:		Sun Mar 31 13:42:53 2019

#	Modifying user name:	14062
#	Modification time:	Sun Mar 31 13:46:49 2019

@<TRIPOS>MOLECULE
PISM00164
   37    38     1     1     0
SMALL
GAST_HUCK


@<TRIPOS>ATOM
      1 C1         -0.3135    5.0760  -10.3829 C.3       1 <1>         0.0155 
      2 C2          0.9188    5.9880  -10.6202 C.3       1 <1>        -0.0401 
      3 C3          0.4823    7.4218  -11.0179 C.3       1 <1>        -0.0628 
      4 C4         -1.2563    5.6263   -9.3364 C.2       1 <1>         0.1011 
      5 N5         -2.4663    5.8487   -9.6543 N.2       1 <1>        -0.2818 
      6 N6         -3.2011    6.3285   -8.5336 N.2       1 <1>        -0.2667 
      7 C7         -2.4765    6.4129   -7.4937 C.2       1 <1>         0.2143 
      8 S8         -0.7530    5.9788   -7.6736 S.3       1 <1>         0.0648 
      9 N9         -2.9324    6.7796   -6.3226 N.pl3     1 <1>        -0.1989 
     10 C10        -4.1930    7.0773   -6.1080 C.2       1 <1>         0.2401 
     11 C11        -4.6976    7.4345   -4.7256 C.3       1 <1>         0.1700 
     12 O12        -5.1334    8.8173   -4.7073 O.3       1 <1>        -0.2602 
     13 C13        -5.8017    9.2208   -3.6100 C.2       1 <1>         0.2411 
     14 O14        -5.7778   10.4009   -3.3042 O.2       1 <1>        -0.3706 
     15 C15        -6.5755    8.2890   -2.7607 C.2       1 <1>         0.0130 
     16 C16        -7.5082    7.4671   -3.2639 C.2       1 <1>        -0.0149 
     17 C17        -8.2877    6.4647   -2.5104 C.2       1 <1>         0.1243 
     18 O18        -9.0111    5.5586   -3.1834 O.3       1 <1>        -0.2549 
     19 C19        -9.5341    4.8374   -2.1868 C.2       1 <1>         0.0897 
     20 C20        -9.2077    5.2199   -0.9500 C.2       1 <1>        -0.0510 
     21 C21        -8.3353    6.3702   -1.1782 C.2       1 <1>        -0.0463 
     22 O22        -5.0435    7.0703   -6.9832 O.2       1 <1>        -0.3736 
     23 H1          0.0213    4.0735  -10.0709 H         1 <1>         0.0506 
     24 H2         -0.8588    4.9633  -11.3352 H         1 <1>         0.0506 
     25 H3          1.5465    5.5629  -11.4215 H         1 <1>         0.0292 
     26 H4          1.5285    6.0280   -9.7042 H         1 <1>         0.0292 
     27 H5         -0.1807    7.8548  -10.2534 H         1 <1>         0.0232 
     28 H6         -0.0566    7.4048  -11.9785 H         1 <1>         0.0232 
     29 H7          1.3642    8.0739  -11.1188 H         1 <1>         0.0232 
     30 H8         -2.2705    6.8141   -5.5407 H         1 <1>         0.2231 
     31 H9         -3.9336    7.3048   -3.9422 H         1 <1>         0.0865 
     32 H10        -5.4836    6.6889   -4.5505 H         1 <1>         0.0865 
     33 H11        -6.3428    8.3247   -1.6968 H         1 <1>         0.0564 
     34 H12        -7.7261    7.5108   -4.3323 H         1 <1>         0.0741 
     35 H13       -10.1859    3.9874   -2.3840 H         1 <1>         0.1076 
     36 H14        -9.5085    4.7820    0.0014 H         1 <1>         0.0388 
     37 H15        -7.8562    6.9798   -0.4144 H         1 <1>         0.0455 
@<TRIPOS>BOND
     1    2    1 1    
     2    2    3 1    
     3    1    4 1    
     4    4    5 2    
     5    5    6 1    
     6    6    7 2    
     7    7    8 1    
     8    4    8 1    
     9    7    9 1    
    10    9   10 1    
    11   10   11 1    
    12   11   12 1    
    13   12   13 1    
    14   13   14 2    
    15   13   15 1    
    16   15   16 2    
    17   16   17 1    
    18   17   18 1    
    19   18   19 1    
    20   19   20 2    
    21   20   21 1    
    22   21   17 2    
    23   10   22 2    
    24    1   23 1    
    25    1   24 1    
    26    2   25 1    
    27    2   26 1    
    28    3   27 1    
    29    3   28 1    
    30    3   29 1    
    31    9   30 1    
    32   11   31 1    
    33   11   32 1    
    34   15   33 1    
    35   16   34 1    
    36   19   35 1    
    37   20   36 1    
    38   21   37 1    
@<TRIPOS>SUBSTRUCTURE
     1 ****        2 TEMP              0 ****  ****    0 ROOT 
@<TRIPOS>NORMAL
@<TRIPOS>FF_PBC
FORCE_FIELD_SETUP_FEATURE Force Field Setup information
v1.0  0 0.000000 0.000000 0.000000 0.000000 0.000000 0.000000 NONE 0 0 0 0 1 0 0 0 0 0 0 0 0
