#	Name:			PISM00857
#	Creating user name:	baoopengkun
#	Creation time:		Thu Dec 13 15:12:19 2018

#	Modifying user name:	baoopengkun
#	Modification time:	Thu Dec 13 20:15:03 2018

@<TRIPOS>MOLECULE
PISM00857
   24    25     1     1     0
SMALL
GAST_HUCK


@<TRIPOS>ATOM
      1 Br1         0.3707   -0.7731    2.3447 Br        1 <1>        -0.0615 
      2 C2         -1.9128    0.2091    1.0044 C.ar      1 <1>        -0.0628 
      3 C3         -2.6049    0.7430   -0.0869 C.ar      1 <1>        -0.0364 
      4 C4         -1.9314    1.0011   -1.2836 C.ar      1 <1>         0.1271 
      5 C5         -0.5656    0.7277   -1.3896 C.ar      1 <1>         0.0032 
      6 C6          0.1281    0.1983   -0.2982 C.ar      1 <1>         0.1062 
      7 C7         -0.5456   -0.0642    0.8988 C.ar      1 <1>         0.0366 
      8 F8         -2.5912    1.5068   -2.3223 F         1 <1>        -0.1839 
      9 O9          1.4915   -0.0683   -0.4074 O.3       1 <1>        -0.2697 
     10 C10         2.3075    1.0590   -0.0657 C.3       1 <1>         0.2364 
     11 O11         2.0119    2.1621   -0.9461 O.3       1 <1>        -0.2312 
     12 C12         3.1185    2.3495   -1.6539 C.2       1 <1>         0.2495 
     13 C13         4.2343    1.4712   -1.3193 C.2       1 <1>         0.0292 
     14 C14         3.7431    0.6973   -0.3536 C.2       1 <1>        -0.0018 
     15 C15         5.6114    1.4408   -1.9241 C.3       1 <1>        -0.0323 
     16 O16         3.1915    3.2052   -2.5188 O.2       1 <1>        -0.3691 
     17 H1         -2.4372    0.0067    1.9330 H         1 <1>         0.0606 
     18 H2         -3.6656    0.9587   -0.0104 H         1 <1>         0.0518 
     19 H3         -0.0442    0.9268   -2.3193 H         1 <1>         0.0534 
     20 H4          2.1803    1.3612    0.9871 H         1 <1>         0.1200 
     21 H5          4.2933   -0.0932    0.1551 H         1 <1>         0.0705 
     22 H6          5.8679    0.4126   -2.2199 H         1 <1>         0.0347 
     23 H7          6.3458    1.7988   -1.1876 H         1 <1>         0.0347 
     24 H8          5.6518    2.0879   -2.8133 H         1 <1>         0.0347 
@<TRIPOS>BOND
     1    7    1 1    
     2    2    3 ar   
     3    3    4 ar   
     4    4    5 ar   
     5    5    6 ar   
     6    6    7 ar   
     7    2    7 ar   
     8    4    8 1    
     9    6    9 1    
    10    9   10 1    
    11   10   11 1    
    12   11   12 1    
    13   12   13 1    
    14   13   14 2    
    15   10   14 1    
    16   13   15 1    
    17   12   16 2    
    18    2   17 1    
    19    3   18 1    
    20    5   19 1    
    21   10   20 1    
    22   14   21 1    
    23   15   22 1    
    24   15   23 1    
    25   15   24 1    
@<TRIPOS>SUBSTRUCTURE
     1 ****        2 TEMP              0 ****  ****    0 ROOT 
@<TRIPOS>NORMAL
@<TRIPOS>FF_PBC
FORCE_FIELD_SETUP_FEATURE Force Field Setup information
v1.0  0 0.000000 0.000000 0.000000 0.000000 0.000000 0.000000 NONE 0 0 0 0 1 0 0 0 0 0 0 0 0
