#	Name:			PISM01047
#	Creating user name:	malab
#	Creation time:		Tue Jul 02 22:38:44 2019

#	Modifying user name:	malab
#	Modification time:	Tue Jul 02 22:40:07 2019

@<TRIPOS>MOLECULE
PISM01047
   64    66     1     1     0
SMALL
GAST_HUCK


@<TRIPOS>ATOM
      1 C1         -6.3150    9.7508    4.6393 C.3       1 <1>        -0.0374 
      2 C2         -5.8065    9.2252    3.2763 C.3       1 <1>         0.0661 
      3 O3         -6.4629    9.9632    2.2328 O.3       1 <1>        -0.3227 
      4 C4         -6.0800    9.5786    0.9489 C.ar      1 <1>         0.0840 
      5 C5         -6.8052    8.5987    0.2675 C.ar      1 <1>        -0.0395 
      6 C6         -6.4216    8.2159   -1.0208 C.ar      1 <1>        -0.0675 
      7 C7         -5.3222    8.8200   -1.6413 C.ar      1 <1>        -0.0397 
      8 C8         -4.5867    9.7871   -0.9455 C.ar      1 <1>        -0.0675 
      9 C9         -4.9707   10.1720    0.3424 C.ar      1 <1>        -0.0395 
     10 C10        -4.9467    8.4109   -3.0719 C.3       1 <1>         0.0279 
     11 N11        -5.9359    8.9752   -4.0269 N.3       1 <1>        -0.2874 
     12 C12        -5.8761   10.4536   -4.1983 C.3       1 <1>         0.0272 
     13 C13        -5.2387   10.8582   -5.5613 C.3       1 <1>         0.0173 
     14 N14        -4.1692    9.8897   -5.8914 N.3       1 <1>        -0.2874 
     15 C15        -4.6714    8.5072   -6.0992 C.3       1 <1>         0.0144 
     16 C16        -5.9923    8.2592   -5.3216 C.3       1 <1>         0.0141 
     17 C17        -7.2947   11.0671   -4.0465 C.3       1 <1>        -0.0127 
     18 C18        -7.9410   10.6982   -2.6888 C.3       1 <1>         0.0457 
     19 O19        -9.2038   11.3808   -2.5870 O.3       1 <1>        -0.3950 
     20 C20        -3.1779   10.3446   -6.8944 C.3       1 <1>         0.0282 
     21 C21        -2.0412    9.3531   -6.9462 C.2       1 <1>        -0.0659 
     22 C22        -1.7037    8.6795   -8.0547 C.2       1 <1>        -0.0736 
     23 C23        -0.5800    7.6639   -8.1074 C.ar      1 <1>        -0.0502 
     24 C24        -0.1767    6.9324   -6.9842 C.ar      1 <1>        -0.0685 
     25 C25         0.9024    6.0481   -7.0706 C.ar      1 <1>        -0.0355 
     26 C26         1.5711    5.8460   -8.2804 C.ar      1 <1>         0.0886 
     27 C27         1.1394    6.5426   -9.4166 C.ar      1 <1>        -0.0355 
     28 C28         0.0735    7.4433   -9.3248 C.ar      1 <1>        -0.0685 
     29 O29         2.6504    4.9504   -8.3098 O.3       1 <1>        -0.3225 
     30 C30         3.3924    4.6892   -9.5119 C.3       1 <1>         0.0591 
     31 H1         -7.4055    9.6153    4.7093 H         1 <1>         0.0255 
     32 H2         -6.0854   10.8235    4.7355 H         1 <1>         0.0255 
     33 H3         -5.8336    9.2069    5.4673 H         1 <1>         0.0255 
     34 H4         -6.0372    8.1505    3.1842 H         1 <1>         0.0608 
     35 H5         -4.7139    9.3623    3.2121 H         1 <1>         0.0608 
     36 H6         -7.6649    8.1389    0.7432 H         1 <1>         0.0525 
     37 H7         -6.9846    7.4478   -1.5421 H         1 <1>         0.0530 
     38 H8         -3.7149   10.2470   -1.3997 H         1 <1>         0.0530 
     39 H9         -4.4105   10.9323    0.8765 H         1 <1>         0.0525 
     40 H10        -4.9466    7.3100   -3.0985 H         1 <1>         0.0568 
     41 H11        -3.9285    8.7462   -3.3264 H         1 <1>         0.0568 
     42 H12        -5.2464   10.8948   -3.4075 H         1 <1>         0.0477 
     43 H13        -4.8484   11.8866   -5.4867 H         1 <1>         0.0444 
     44 H14        -5.9796   10.8499   -6.3766 H         1 <1>         0.0444 
     45 H15        -3.8999    7.8175   -5.7219 H         1 <1>         0.0441 
     46 H16        -4.8322    8.2882   -7.1679 H         1 <1>         0.0441 
     47 H17        -6.1633    7.1797   -5.1788 H         1 <1>         0.0441 
     48 H18        -6.8534    8.6376   -5.8949 H         1 <1>         0.0441 
     49 H19        -7.9537   10.7051   -4.8514 H         1 <1>         0.0303 
     50 H20        -7.2304   12.1650   -4.1234 H         1 <1>         0.0303 
     51 H21        -7.2771   11.0012   -1.8608 H         1 <1>         0.0557 
     52 H22        -8.0980    9.6078   -2.6456 H         1 <1>         0.0557 
     53 H23        -9.6609   11.1971   -1.7714 H         1 <1>         0.2094 
     54 H24        -2.7526   11.3155   -6.5950 H         1 <1>         0.0615 
     55 H25        -3.6708   10.4745   -7.8712 H         1 <1>         0.0615 
     56 H26        -1.4978    9.2141   -6.0128 H         1 <1>         0.0689 
     57 H27        -2.2520    8.8634   -8.9787 H         1 <1>         0.0415 
     58 H28        -0.6969    7.0303   -6.0384 H         1 <1>         0.0561 
     59 H29         1.2291    5.5054   -6.1896 H         1 <1>         0.0539 
     60 H30         1.6136    6.4047  -10.3805 H         1 <1>         0.0539 
     61 H31        -0.2451    7.9799  -10.2131 H         1 <1>         0.0561 
     62 H32         4.1812    3.9629   -9.2669 H         1 <1>         0.0577 
     63 H33         3.8707    5.6064   -9.8886 H         1 <1>         0.0577 
     64 H34         2.7466    4.2503  -10.2879 H         1 <1>         0.0577 
@<TRIPOS>BOND
     1    2    1 1    
     2    2    3 1    
     3    3    4 1    
     4    4    5 ar   
     5    5    6 ar   
     6    6    7 ar   
     7    7    8 ar   
     8    8    9 ar   
     9    4    9 ar   
    10    7   10 1    
    11   10   11 1    
    12   11   12 1    
    13   12   13 1    
    14   13   14 1    
    15   14   15 1    
    16   15   16 1    
    17   11   16 1    
    18   12   17 1    
    19   17   18 1    
    20   18   19 1    
    21   14   20 1    
    22   20   21 1    
    23   21   22 2    
    24   22   23 1    
    25   23   24 ar   
    26   24   25 ar   
    27   25   26 ar   
    28   26   27 ar   
    29   27   28 ar   
    30   23   28 ar   
    31   26   29 1    
    32   29   30 1    
    33    1   31 1    
    34    1   32 1    
    35    1   33 1    
    36    2   34 1    
    37    2   35 1    
    38    5   36 1    
    39    6   37 1    
    40    8   38 1    
    41    9   39 1    
    42   10   40 1    
    43   10   41 1    
    44   12   42 1    
    45   13   43 1    
    46   13   44 1    
    47   15   45 1    
    48   15   46 1    
    49   16   47 1    
    50   16   48 1    
    51   17   49 1    
    52   17   50 1    
    53   18   51 1    
    54   18   52 1    
    55   19   53 1    
    56   20   54 1    
    57   20   55 1    
    58   21   56 1    
    59   22   57 1    
    60   24   58 1    
    61   25   59 1    
    62   27   60 1    
    63   28   61 1    
    64   30   62 1    
    65   30   63 1    
    66   30   64 1    
@<TRIPOS>SUBSTRUCTURE
     1 ****        2 TEMP              0 ****  ****    0 ROOT 
@<TRIPOS>NORMAL
@<TRIPOS>FF_PBC
FORCE_FIELD_SETUP_FEATURE Force Field Setup information
v1.0  0 0.000000 0.000000 0.000000 0.000000 0.000000 0.000000 NONE 0 0 0 0 1 0 0 0 0 0 0 0 0
