#	Name:			PISM00762
#	Creating user name:	baoopengkun
#	Creation time:		Sun Dec 02 11:38:55 2018

#	Modifying user name:	baoopengkun
#	Modification time:	Sun Dec 02 11:54:21 2018

@<TRIPOS>MOLECULE
PISM00762
   45    46     1     2     0
SMALL
GAST_HUCK


@<TRIPOS>ATOM
      1 C1          2.8413    6.0072   -3.9605 C.2       1 <1>         0.1276 
      2 C2          2.9113    7.4763   -4.3374 C.3       1 <1>         0.0310 
      3 C3          2.8275    7.6084   -5.9035 C.3       1 <1>        -0.0422 
      4 C4          2.1861    5.1616   -6.2832 C.3       1 <1>        -0.0259 
      5 C5          2.1552    4.9954   -4.7851 C.2       1 <1>         0.0221 
      6 O6          3.3929    5.6168   -2.9430 O.2       1 <1>        -0.3545 
      7 C7          1.5408    3.9610   -4.1938 C.2       1 <1>         0.0798 
      8 O8          0.9196    3.0350   -4.9400 O.3       1 <1>        -0.2695 
      9 C9          0.2889    2.0010   -4.1663 C.3       1 <1>         0.2392 
     10 O10         1.2674    1.3036   -3.3683 O.3       1 <1>        -0.2304 
     11 C11         1.2867    0.0641   -3.8423 C.2       1 <1>         0.2495 
     12 C12         0.3591   -0.2047   -4.9355 C.2       1 <1>         0.0293 
     13 C13        -0.2453    0.9663   -5.1255 C.2       1 <1>        -0.0008 
     14 C14         0.1381   -1.4949   -5.6767 C.3       1 <1>        -0.0323 
     15 O15         2.0283   -0.7886   -3.3855 O.2       1 <1>        -0.3691 
     16 C16         1.8722    6.6301   -6.6496 C.3       1 <1>        -0.0485 
     17 C17         4.3508    7.9525   -3.9399 C.3       1 <1>        -0.0553 
     18 C18         1.8072    8.2835   -3.5262 C.3       1 <1>        -0.0284 
     19 C19         0.3793    8.1032   -4.1236 C.3       1 <1>        -0.0607 
     20 C20         1.7034    7.8060   -2.0379 C.3       1 <1>        -0.0607 
     21 C21         2.1020    9.8184   -3.4914 C.3       1 <1>        -0.0607 
     22 H1          3.8173    7.3864   -6.3366 H         1 <1>         0.0256 
     23 H2          2.5859    8.6406   -6.1953 H         1 <1>         0.0256 
     24 H3          1.4732    4.5006   -6.8025 H         1 <1>         0.0359 
     25 H4          3.2005    4.8990   -6.6236 H         1 <1>         0.0359 
     26 H5          1.5667    3.9053   -3.1018 H         1 <1>         0.1097 
     27 H6         -0.5248    2.3925   -3.5323 H         1 <1>         0.1212 
     28 H7         -1.0146    1.1573   -5.8726 H         1 <1>         0.0706 
     29 H8          0.8720   -2.2500   -5.3574 H         1 <1>         0.0347 
     30 H9          0.2470   -1.3274   -6.7586 H         1 <1>         0.0347 
     31 H10        -0.8748   -1.8710   -5.4696 H         1 <1>         0.0347 
     32 H11         0.8114    6.8182   -6.4475 H         1 <1>         0.0279 
     33 H12         2.0051    6.7571   -7.7384 H         1 <1>         0.0279 
     34 H13         5.1100    7.2661   -4.3482 H         1 <1>         0.0219 
     35 H14         4.5120    7.9861   -2.8545 H         1 <1>         0.0219 
     36 H15         4.5633    8.9514   -4.3501 H         1 <1>         0.0219 
     37 H16        -0.3843    8.5636   -3.4777 H         1 <1>         0.0233 
     38 H17         0.1290    7.0357   -4.2136 H         1 <1>         0.0233 
     39 H18         0.2965    8.5968   -5.1021 H         1 <1>         0.0233 
     40 H19         2.6643    7.8561   -1.5095 H         1 <1>         0.0233 
     41 H20         1.3307    6.7725   -1.9730 H         1 <1>         0.0233 
     42 H21         0.9977    8.4354   -1.4739 H         1 <1>         0.0233 
     43 H22         2.2472   10.2303   -4.4995 H         1 <1>         0.0233 
     44 H23         2.9952   10.0447   -2.8908 H         1 <1>         0.0233 
     45 H24         1.2645   10.3656   -3.0315 H         1 <1>         0.0233 
@<TRIPOS>BOND
     1    2    1 1    
     2    2    3 1    
     3    5    4 1    
     4    4   16 1    
     5    1    5 1    
     6    1    6 2    
     7    5    7 2    
     8    7    8 1    
     9    8    9 1    
    10    9   10 1    
    11   10   11 1    
    12   12   11 1    
    13   13   12 2    
    14    9   13 1    
    15   12   14 1    
    16   11   15 2    
    17    3   16 1    
    18    2   17 1    
    19    2   18 1    
    20   18   19 1    
    21   18   20 1    
    22   18   21 1    
    23    3   22 1    
    24    3   23 1    
    25    4   24 1    
    26    4   25 1    
    27    7   26 1    
    28    9   27 1    
    29   13   28 1    
    30   14   29 1    
    31   14   30 1    
    32   14   31 1    
    33   16   32 1    
    34   16   33 1    
    35   17   34 1    
    36   17   35 1    
    37   17   36 1    
    38   19   37 1    
    39   19   38 1    
    40   19   39 1    
    41   20   40 1    
    42   20   41 1    
    43   20   42 1    
    44   21   43 1    
    45   21   44 1    
    46   21   45 1    
@<TRIPOS>SUBSTRUCTURE
     1 ****        2 TEMP              0 ****  ****    0 ROOT 
@<TRIPOS>NORMAL
@<TRIPOS>FF_PBC
FORCE_FIELD_SETUP_FEATURE Force Field Setup information
v1.0  0 0.000000 0.000000 0.000000 0.000000 0.000000 0.000000 NONE 0 0 0 0 1 0 0 0 0 0 0 0 0
@<TRIPOS>RENDERING_ATTRS
ANTIALIASED_LINES 
*
