#	Name:			PISM00856
#	Creating user name:	baoopengkun
#	Creation time:		Thu Dec 13 15:12:19 2018

#	Modifying user name:	baoopengkun
#	Modification time:	Thu Dec 13 20:12:54 2018

@<TRIPOS>MOLECULE
PISM00856
   24    25     1     1     0
SMALL
GAST_HUCK


@<TRIPOS>ATOM
      1 Cl1         0.3201   -0.8596    2.1657 Cl        1 <1>        -0.0762 
      2 C2         -1.9096    0.0762    0.8917 C.ar      1 <1>        -0.0538 
      3 C3         -2.5950    0.6218   -0.1979 C.ar      1 <1>        -0.0628 
      4 C4         -1.9092    0.9152   -1.3804 C.ar      1 <1>         0.0045 
      5 C5         -0.5375    0.6628   -1.4713 C.ar      1 <1>        -0.0224 
      6 C6          0.1481    0.1186   -0.3822 C.ar      1 <1>         0.1150 
      7 C7         -0.5379   -0.1759    0.7998 C.ar      1 <1>         0.0712 
      8 Br8        -2.8168    1.6371   -2.8250 Br        1 <1>        -0.0526 
      9 O9          1.5159   -0.1302   -0.4780 O.3       1 <1>        -0.2693 
     10 C10         2.3120    0.9869   -0.0641 C.3       1 <1>         0.2359 
     11 O11         2.0224    2.1292   -0.8951 O.3       1 <1>        -0.2313 
     12 C12         3.1414    2.3632   -1.5687 C.2       1 <1>         0.2494 
     13 C13         4.2599    1.4809   -1.2542 C.2       1 <1>         0.0292 
     14 C14         3.7571    0.6544   -0.3394 C.2       1 <1>        -0.0019 
     15 C15         5.6494    1.4952   -1.8304 C.3       1 <1>        -0.0323 
     16 O16         3.2232    3.2615   -2.3885 O.2       1 <1>        -0.3691 
     17 H1         -2.4408   -0.1525    1.8101 H         1 <1>         0.0601 
     18 H2         -3.6603    0.8175   -0.1258 H         1 <1>         0.0549 
     19 H3          0.0006    0.8884   -2.3858 H         1 <1>         0.0568 
     20 H4          2.1602    1.2342    0.9998 H         1 <1>         0.1199 
     21 H5          4.3048   -0.1553    0.1408 H         1 <1>         0.0705 
     22 H6          5.9361    0.4802   -2.1438 H         1 <1>         0.0347 
     23 H7          6.3599    1.8529   -1.0707 H         1 <1>         0.0347 
     24 H8          5.6930    2.1631   -2.7038 H         1 <1>         0.0347 
@<TRIPOS>BOND
     1    7    1 1    
     2    2    3 ar   
     3    3    4 ar   
     4    4    5 ar   
     5    5    6 ar   
     6    6    7 ar   
     7    2    7 ar   
     8    4    8 1    
     9    6    9 1    
    10    9   10 1    
    11   10   11 1    
    12   11   12 1    
    13   12   13 1    
    14   13   14 2    
    15   10   14 1    
    16   13   15 1    
    17   12   16 2    
    18    2   17 1    
    19    3   18 1    
    20    5   19 1    
    21   10   20 1    
    22   14   21 1    
    23   15   22 1    
    24   15   23 1    
    25   15   24 1    
@<TRIPOS>SUBSTRUCTURE
     1 ****        2 TEMP              0 ****  ****    0 ROOT 
@<TRIPOS>NORMAL
@<TRIPOS>FF_PBC
FORCE_FIELD_SETUP_FEATURE Force Field Setup information
v1.0  0 0.000000 0.000000 0.000000 0.000000 0.000000 0.000000 NONE 0 0 0 0 1 0 0 0 0 0 0 0 0
