#	Name:			PISM00913
#	Creating user name:	baoopengkun
#	Creation time:		Fri Dec 14 10:31:16 2018

#	Modifying user name:	baoopengkun
#	Modification time:	Fri Dec 14 10:46:31 2018

@<TRIPOS>MOLECULE
PISM00913
   37    39     1     1     0
SMALL
GAST_HUCK


@<TRIPOS>ATOM
      1 C1         23.0945   11.7936   -7.1386 C.ar      1 <1>         0.0873 
      2 C2         23.8432   12.0994   -5.9951 C.ar      1 <1>        -0.0294 
      3 C3         24.8963   13.0261   -6.0445 C.ar      1 <1>        -0.0620 
      4 C4         25.2298   13.6781   -7.2389 C.ar      1 <1>        -0.0488 
      5 C5         24.4698   13.3739   -8.3677 C.ar      1 <1>         0.0636 
      6 C6         23.4274   12.4598   -8.3179 C.ar      1 <1>         0.0945 
      7 C7         22.8552   12.4192   -9.7125 C.2       1 <1>         0.2371 
      8 N8         23.5468   13.2557  -10.5101 N.am      1 <1>        -0.1423 
      9 C9         24.5148   13.8597   -9.7954 C.2       1 <1>         0.2414 
     10 O10        21.9137   11.7192  -10.0421 O.2       1 <1>        -0.3740 
     11 O11        25.3164   14.6746  -10.2181 O.2       1 <1>        -0.3670 
     12 C12        23.2631   13.4988  -11.9132 C.3       1 <1>         0.2213 
     13 O13        22.0440   14.2621  -12.0057 O.3       1 <1>        -0.2348 
     14 C14        21.1814   13.4681  -12.6286 C.2       1 <1>         0.2491 
     15 C15        21.7038   12.1667  -13.0313 C.2       1 <1>         0.0288 
     16 C16        22.9668   12.1925  -12.6105 C.2       1 <1>        -0.0059 
     17 C17        20.9854   11.0542  -13.7438 C.3       1 <1>        -0.0323 
     18 O18        20.0350   13.8156  -12.8552 O.2       1 <1>        -0.3691 
     19 N19        22.0870   10.8925   -7.0916 N.pl3     1 <1>        -0.2340 
     20 C20        22.1882    9.6985   -7.6090 C.2       1 <1>         0.2022 
     21 C21        23.4562    9.2425   -8.2975 C.3       1 <1>         0.0402 
     22 O22        21.2508    8.9219   -7.5323 O.2       1 <1>        -0.3787 
     23 C23        23.4195    7.7396   -8.6805 C.3       1 <1>        -0.0475 
     24 H1         23.6033   11.6078   -5.0576 H         1 <1>         0.0578 
     25 H2         25.4626   13.2423   -5.1433 H         1 <1>         0.0632 
     26 H3         26.0443   14.3932   -7.2918 H         1 <1>         0.0584 
     27 H4         24.0831   14.0363  -12.4182 H         1 <1>         0.1152 
     28 H5         23.6838   11.3825  -12.7377 H         1 <1>         0.0702 
     29 H6         21.3458   10.9860  -14.7808 H         1 <1>         0.0347 
     30 H7         19.9018   11.2454  -13.7518 H         1 <1>         0.0347 
     31 H8         21.1742   10.0993  -13.2307 H         1 <1>         0.0347 
     32 H9         21.2093   11.1507   -6.6158 H         1 <1>         0.2134 
     33 H10        24.3116    9.4179   -7.6260 H         1 <1>         0.0508 
     34 H11        23.6026    9.8277   -9.2172 H         1 <1>         0.0508 
     35 H12        23.2831    7.1208   -7.7796 H         1 <1>         0.0255 
     36 H13        24.3615    7.4456   -9.1701 H         1 <1>         0.0255 
     37 H14        22.5872    7.5425   -9.3747 H         1 <1>         0.0255 
@<TRIPOS>BOND
     1    2    1 ar   
     2    2    3 ar   
     3    3    4 ar   
     4    4    5 ar   
     5    6    5 ar   
     6    1    6 ar   
     7    6    7 1    
     8    7    8 am   
     9    9    8 am   
    10    5    9 1    
    11    7   10 2    
    12    9   11 2    
    13    8   12 1    
    14   12   13 1    
    15   13   14 1    
    16   15   14 1    
    17   16   15 2    
    18   12   16 1    
    19   15   17 1    
    20   14   18 2    
    21    1   19 1    
    22   19   20 1    
    23   20   21 1    
    24   20   22 2    
    25   21   23 1    
    26    2   24 1    
    27    3   25 1    
    28    4   26 1    
    29   12   27 1    
    30   16   28 1    
    31   17   29 1    
    32   17   30 1    
    33   17   31 1    
    34   19   32 1    
    35   21   33 1    
    36   21   34 1    
    37   23   35 1    
    38   23   36 1    
    39   23   37 1    
@<TRIPOS>SUBSTRUCTURE
     1 ****        2 TEMP              0 ****  ****    0 ROOT 
@<TRIPOS>NORMAL
@<TRIPOS>FF_PBC
FORCE_FIELD_SETUP_FEATURE Force Field Setup information
v1.0  0 0.000000 0.000000 0.000000 0.000000 0.000000 0.000000 NONE 0 0 0 0 1 0 0 0 0 0 0 0 0
