#	Name:			PISM00593
#	Creating user name:	baoopengkun
#	Creation time:		Mon Dec 10 12:10:23 2018

#	Modifying user name:	baoopengkun
#	Modification time:	Mon Dec 10 12:10:50 2018

@<TRIPOS>MOLECULE
PISM00593
   33    35     1     2     0
SMALL
GAST_HUCK


@<TRIPOS>ATOM
      1 C1         -2.4367   10.4345   -0.9724 C.ar      1 <1>        -0.0348 
      2 C2         -1.8949    9.8401    0.1706 C.ar      1 <1>        -0.0180 
      3 C3         -2.2887   10.2770    1.4383 C.ar      1 <1>         0.0714 
      4 C4         -3.2244   11.3079    1.5616 C.ar      1 <1>        -0.0180 
      5 C5         -3.7676   11.9008    0.4180 C.ar      1 <1>        -0.0348 
      6 C6         -3.3732   11.4664   -0.8515 C.ar      1 <1>         0.0068 
      7 C7         -3.9648   12.1074   -2.1134 C.3       1 <1>         0.1920 
      8 C8         -5.2056   11.3091   -2.5692 C.3       1 <1>         0.1073 
      9 N9         -4.9097    9.8833   -2.6031 N.pl3     1 <1>        -0.1814 
     10 N10        -4.4183    9.1794   -3.6611 N.2       1 <1>        -0.1908 
     11 C11        -4.2719    7.9314   -3.4117 C.2       1 <1>         0.0618 
     12 N12        -4.7359    7.8719   -2.0529 N.2       1 <1>        -0.2870 
     13 C13        -5.0871    9.0101   -1.6588 C.2       1 <1>         0.1270 
     14 O14        -4.2742   13.4943   -1.9303 O.3       1 <1>        -0.3815 
     15 C15        -3.0273   14.2013   -1.9207 C.3       1 <1>         0.0644 
     16 C16        -2.1127   13.2970   -2.7879 C.3       1 <1>         0.0700 
     17 O17        -2.9909   12.2275   -3.1567 O.3       1 <1>        -0.3787 
     18 Cl18       -1.6106    9.5326    2.8717 Cl        1 <1>        -0.0420 
     19 H1         -2.1337   10.0909   -1.9573 H         1 <1>         0.0849 
     20 H2         -1.1692    9.0388    0.0752 H         1 <1>         0.0703 
     21 H3         -3.5281   11.6465    2.5469 H         1 <1>         0.0703 
     22 H4         -4.4975   12.6985    0.5167 H         1 <1>         0.0849 
     23 H5         -5.4984   11.6514   -3.5728 H         1 <1>         0.0595 
     24 H6         -6.0347   11.5102   -1.8740 H         1 <1>         0.0595 
     25 H7         -3.8995    7.1359   -4.0552 H         1 <1>         0.0863 
     26 H8         -5.4794    9.2145   -0.6633 H         1 <1>         0.1361 
     27 H11        -2.6482   14.2770   -0.8888 H         1 <1>         0.0575 
     28 C28        -1.5778   13.9891   -4.0635 C.3       1 <1>        -0.0375 
     29 H9         -3.1724   15.2139   -2.3262 H         1 <1>         0.0575 
     30 H10        -1.2782   12.8934   -2.1883 H         1 <1>         0.0605 
     31 H14        -0.9912   13.2717   -4.6576 H         1 <1>         0.0255 
     32 H15        -0.9361   14.8420   -3.7942 H         1 <1>         0.0255 
     33 H16        -2.4191   14.3490   -4.6754 H         1 <1>         0.0255 
@<TRIPOS>BOND
     1    2    1 ar   
     2    2    3 ar   
     3    3    4 ar   
     4    4    5 ar   
     5    5    6 ar   
     6    1    6 ar   
     7    6    7 1    
     8    7    8 1    
     9    8    9 1    
    10    9   10 1    
    11   10   11 2    
    12   11   12 1    
    13   12   13 2    
    14    9   13 1    
    15    7   14 1    
    16   14   15 1    
    17   15   16 1    
    18   16   17 1    
    19    7   17 1    
    20    3   18 1    
    21    1   19 1    
    22    2   20 1    
    23    4   21 1    
    24    5   22 1    
    25    8   23 1    
    26    8   24 1    
    27   11   25 1    
    28   13   26 1    
    29   15   27 1    
    30   16   28 1    
    31   15   29 1    
    32   16   30 1    
    33   28   31 1    
    34   28   32 1    
    35   28   33 1    
@<TRIPOS>SUBSTRUCTURE
     1 ****        2 TEMP              0 ****  ****    0 ROOT 
@<TRIPOS>NORMAL
@<TRIPOS>FF_PBC
FORCE_FIELD_SETUP_FEATURE Force Field Setup information
v1.0  0 0.000000 0.000000 0.000000 0.000000 0.000000 0.000000 NONE 0 0 0 0 1 0 0 0 0 0 0 0 0
@<TRIPOS>RENDERING_ATTRS
ANTIALIASED_LINES 
*
