#	Name:			PISM00370
#	Creating user name:	malab
#	Creation time:		Tue Apr 02 20:32:38 2019

#	Modifying user name:	malab
#	Modification time:	Tue Apr 02 20:42:27 2019

@<TRIPOS>MOLECULE
PISM00370
   71    73     1     1     0
SMALL
GAST_HUCK


@<TRIPOS>ATOM
      1 N1          5.8765   -1.6162   -6.8563 N.2       1 <1>        -0.1730 
      2 C2          6.4385   -1.9331   -7.9614 C.2       1 <1>         0.0653 
      3 N3          5.5142   -1.3449   -8.8848 N.2       1 <1>        -0.2827 
      4 C4          4.5729   -0.7849   -8.2733 C.2       1 <1>         0.1489 
      5 N5          4.7146   -0.9080   -6.9818 N.pl3     1 <1>        -0.1236 
      6 C6          3.9442   -0.4571   -6.0194 C.2       1 <1>         0.1347 
      7 C7          4.4214   -0.8161   -4.6158 C.3       1 <1>         0.1322 
      8 O8          5.8420   -0.6244   -4.4756 O.3       1 <1>        -0.3716 
      9 N9         -1.5899    1.6743   -1.6450 N.2       1 <1>        -0.0916 
     10 N10        -2.2215    2.4079   -0.7140 N.2       1 <1>        -0.2262 
     11 C11         2.8264    0.2584   -6.2443 C.2       1 <1>        -0.0370 
     12 C12         2.4204    1.8251   -4.2936 C.ar      1 <1>        -0.0693 
     13 C13         1.6130    2.3066   -3.2588 C.ar      1 <1>        -0.0312 
     14 C14         0.2882    1.8693   -3.1309 C.ar      1 <1>         0.1107 
     15 C15        -0.1943    0.9056   -4.0230 C.ar      1 <1>        -0.0312 
     16 C16         0.6218    0.3998   -5.0387 C.ar      1 <1>        -0.0693 
     17 N17        -0.5393    2.3449   -2.1671 N.pl3     1 <1>        -0.1418 
     18 C18         1.9426    0.8393   -5.1622 C.ar      1 <1>        -0.0552 
     19 C19         3.9531   -2.2287   -4.1197 C.3       1 <1>         0.0043 
     20 C20         4.4245   -3.3853   -5.0513 C.3       1 <1>        -0.0552 
     21 C21         4.5240   -2.4814   -2.6913 C.3       1 <1>        -0.0552 
     22 C22         2.3974   -2.2718   -4.0443 C.3       1 <1>        -0.0552 
     23 C23        -1.4633    3.6331   -0.7117 C.2       1 <1>         0.0385 
     24 C24        -0.4773    3.5250   -1.6088 C.2       1 <1>         0.0826 
     25 C25        -1.8130    4.7867    0.1937 C.3       1 <1>        -0.0183 
     26 C26        -0.6810    9.4612    1.9869 C.3       1 <1>        -0.0531 
     27 C27         0.2917   10.6686    1.8890 C.3       1 <1>        -0.0531 
     28 C28        -0.0836   11.7839    2.9028 C.3       1 <1>        -0.0533 
     29 H1          7.3565   -2.4896   -8.1453 H         1 <1>         0.0879 
     30 H2          3.7947   -0.2919   -8.8520 H         1 <1>         0.1387 
     31 H3          4.0249   -0.1003   -3.8858 H         1 <1>         0.0846 
     32 H4          6.3440   -1.1620   -5.0806 H         1 <1>         0.2141 
     33 H5          2.4491    0.4877   -7.2365 H         1 <1>         0.0306 
     34 H6          3.4230    2.2217   -4.4235 H         1 <1>         0.0534 
     35 H7          2.0372    3.0150   -2.5569 H         1 <1>         0.0577 
     36 H8         -1.2144    0.5472   -3.9304 H         1 <1>         0.0577 
     37 H9          0.2273   -0.3364   -5.7318 H         1 <1>         0.0534 
     38 H10         4.0617   -4.3530   -4.6721 H         1 <1>         0.0238 
     39 H11         5.5215   -3.4420   -5.0980 H         1 <1>         0.0238 
     40 H12         4.0293   -3.2597   -6.0701 H         1 <1>         0.0238 
     41 H13         4.1905   -3.4557   -2.3022 H         1 <1>         0.0238 
     42 H14         4.1876   -1.7017   -1.9906 H         1 <1>         0.0238 
     43 H15         5.6245   -2.4803   -2.7058 H         1 <1>         0.0238 
     44 H16         1.9590   -2.1528   -5.0457 H         1 <1>         0.0238 
     45 H17         2.0113   -1.4739   -3.3916 H         1 <1>         0.0238 
     46 C46        -0.8530    6.0022    0.0910 C.3       1 <1>        -0.0461 
     47 H18         2.0521   -3.2354   -3.6392 H         1 <1>         0.0238 
     48 H19         0.2414    4.3130   -1.8227 H         1 <1>         0.0901 
     49 H20        -1.8084    4.4016    1.2254 H         1 <1>         0.0382 
     50 C50        -1.2592    7.1285    1.0810 C.3       1 <1>        -0.0517 
     51 H21        -2.8389    5.1026   -0.0518 H         1 <1>         0.0382 
     52 C52        -0.2933    8.3411    0.9826 C.3       1 <1>        -0.0529 
     53 H22        -0.6555    9.0557    3.0118 H         1 <1>         0.0265 
     54 H23        -1.7082    9.8017    1.7759 H         1 <1>         0.0265 
     55 H24         0.2603   11.0798    0.8666 H         1 <1>         0.0265 
     56 H25         1.3197   10.3255    2.0920 H         1 <1>         0.0265 
     57 H26        -1.1111   12.1294    2.7019 H         1 <1>         0.0265 
     58 C58         0.8912   12.9892    2.8043 C.3       1 <1>        -0.0559 
     59 H28        -0.0510   11.3734    3.9255 H         1 <1>         0.0265 
     60 H29        -0.8749    6.3990   -0.9374 H         1 <1>         0.0282 
     61 H30         0.1738    5.6734    0.3214 H         1 <1>         0.0282 
     62 H31        -1.2417    6.7325    2.1098 H         1 <1>         0.0267 
     63 H32        -2.2864    7.4604    0.8567 H         1 <1>         0.0267 
     64 H33        -0.3195    8.7450   -0.0429 H         1 <1>         0.0265 
     65 H34         0.7348    8.0043    1.1946 H         1 <1>         0.0265 
     66 C66         0.5198   14.0994    3.8215 C.3       1 <1>        -0.0653 
     67 H27         0.8578   13.4088    1.7850 H         1 <1>         0.0263 
     68 H35         1.9212   12.6490    3.0037 H         1 <1>         0.0263 
     69 H36        -0.4996   14.4694    3.6307 H         1 <1>         0.0230 
     70 H37         1.2212   14.9444    3.7345 H         1 <1>         0.0230 
     71 H38         0.5679   13.7091    4.8501 H         1 <1>         0.0230 
@<TRIPOS>BOND
     1    2    1 2    
     2    2    3 1    
     3    3    4 2    
     4    4    5 1    
     5    1    5 1    
     6    5    6 1    
     7    6    7 1    
     8    7    8 1    
     9   17    9 1    
    10    9   10 2    
    11   10   23 1    
    12    6   11 2    
    13   18   12 ar   
    14   12   13 ar   
    15   13   14 ar   
    16   15   14 ar   
    17   16   15 ar   
    18   18   16 ar   
    19   11   18 1    
    20   14   17 1    
    21    7   19 1    
    22   19   20 1    
    23   19   21 1    
    24   19   22 1    
    25   24   23 2    
    26   17   24 1    
    27   23   25 1    
    28   52   26 1    
    29   26   27 1    
    30   27   28 1    
    31    2   29 1    
    32    4   30 1    
    33    7   31 1    
    34    8   32 1    
    35   11   33 1    
    36   12   34 1    
    37   13   35 1    
    38   15   36 1    
    39   16   37 1    
    40   20   38 1    
    41   20   39 1    
    42   20   40 1    
    43   21   41 1    
    44   21   42 1    
    45   21   43 1    
    46   22   44 1    
    47   22   45 1    
    48   25   46 1    
    49   22   47 1    
    50   24   48 1    
    51   25   49 1    
    52   46   50 1    
    53   25   51 1    
    54   50   52 1    
    55   26   53 1    
    56   26   54 1    
    57   27   55 1    
    58   27   56 1    
    59   28   57 1    
    60   28   58 1    
    61   28   59 1    
    62   46   60 1    
    63   46   61 1    
    64   50   62 1    
    65   50   63 1    
    66   52   64 1    
    67   52   65 1    
    68   58   66 1    
    69   58   67 1    
    70   58   68 1    
    71   66   69 1    
    72   66   70 1    
    73   66   71 1    
@<TRIPOS>SUBSTRUCTURE
     1 ****        2 TEMP              0 ****  ****    0 ROOT 
@<TRIPOS>NORMAL
@<TRIPOS>FF_PBC
FORCE_FIELD_SETUP_FEATURE Force Field Setup information
v1.0  0 0.000000 0.000000 0.000000 0.000000 0.000000 0.000000 NONE 0 0 0 0 1 0 0 0 0 0 0 0 0
