#	Name:			PISM00095
#	Creating user name:	baoopengkun
#	Creation time:		Sun Dec 16 14:13:58 2018

#	Modifying user name:	baoopengkun
#	Modification time:	Sun Dec 16 14:15:54 2018

@<TRIPOS>MOLECULE
PISM00095
   43    46     1     1     0
SMALL
GAST_HUCK


@<TRIPOS>ATOM
      1 C1          1.8846   13.1006    3.8970 C.3       1 <1>        -0.0468 
      2 C2          2.6614   12.3866    5.0316 C.3       1 <1>        -0.0416 
      3 C3          2.1109   10.9499    5.2167 C.3       1 <1>        -0.0110 
      4 C4          1.9399   10.2526    3.8928 C.2       1 <1>         0.0161 
      5 C5          1.9519   10.8849    2.7106 C.2       1 <1>        -0.0380 
      6 C6          2.1362   12.3717    2.5519 C.3       1 <1>        -0.0354 
      7 S7          1.6909    8.4745    3.8131 S.3       1 <1>        -0.0209 
      8 C8          1.5771    8.6362    2.0621 C.ar      1 <1>         0.1028 
      9 C9          1.7486    9.9214    1.5663 C.ar      1 <1>         0.0454 
     10 N10         1.3379    7.6149    1.2163 N.ar      1 <1>        -0.2819 
     11 C11         1.2132    7.8492   -0.1075 C.ar      1 <1>         0.0557 
     12 N12         1.3691    9.0942   -0.6093 N.ar      1 <1>        -0.2642 
     13 C13         1.6947   10.1330    0.1869 C.ar      1 <1>         0.1559 
     14 N14         1.9520   11.3331   -0.3793 N.pl3     1 <1>        -0.1953 
     15 N15         3.1660   11.9342   -0.3653 N.2       1 <1>        -0.1955 
     16 C16         4.2556   11.3091   -0.1466 C.2       1 <1>         0.0280 
     17 C17         5.5784   12.0417   -0.2304 C.ar      1 <1>        -0.0283 
     18 C18         5.6224   13.4036   -0.5451 C.ar      1 <1>        -0.0715 
     19 C19         6.8490   14.0611   -0.6868 C.ar      1 <1>        -0.0386 
     20 C20         8.0511   13.3627   -0.5132 C.ar      1 <1>         0.1191 
     21 C21         8.0063   12.0073   -0.1655 C.ar      1 <1>         0.1210 
     22 C22         6.7785   11.3588   -0.0064 C.ar      1 <1>        -0.0325 
     23 O23         9.2890   13.9966   -0.6820 O.3       1 <1>        -0.3348 
     24 O24         9.1883   11.2877    0.0238 O.3       1 <1>        -0.3246 
     25 C25         9.8163   10.8807   -1.2029 C.3       1 <1>         0.0569 
     26 H1          2.2046   14.1538    3.8193 H         1 <1>         0.0281 
     27 H2          0.8078   13.0840    4.1333 H         1 <1>         0.0281 
     28 H3          2.5644   12.9468    5.9763 H         1 <1>         0.0290 
     29 H4          3.7290   12.3445    4.7613 H         1 <1>         0.0290 
     30 H5          1.1203   10.9806    5.6974 H         1 <1>         0.0436 
     31 H6          2.7925   10.3735    5.8637 H         1 <1>         0.0436 
     32 H7          1.4414   12.7664    1.7934 H         1 <1>         0.0348 
     33 H8          3.1672   12.5523    2.2117 H         1 <1>         0.0348 
     34 H9          0.9864    7.0286   -0.7793 H         1 <1>         0.0984 
     35 H10         1.2018   11.7686   -0.9343 H         1 <1>         0.2390 
     36 H11         4.2645   10.2437    0.0836 H         1 <1>         0.0796 
     37 H12         4.7016   13.9591   -0.6878 H         1 <1>         0.0513 
     38 H13         6.8598   15.1165   -0.9375 H         1 <1>         0.0520 
     39 H14         6.7708   10.3142    0.2887 H         1 <1>         0.0512 
     40 H15         9.2349   14.9119   -0.9311 H         1 <1>         0.2457 
     41 H16        10.7342   10.3288   -0.9547 H         1 <1>         0.0573 
     42 H17        10.0850   11.7497   -1.8228 H         1 <1>         0.0573 
     43 H18         9.1503   10.2178   -1.7771 H         1 <1>         0.0573 
@<TRIPOS>BOND
     1    2    1 1    
     2    2    3 1    
     3    3    4 1    
     4    4    5 2    
     5    5    6 1    
     6    1    6 1    
     7    4    7 1    
     8    7    8 1    
     9    8    9 ar   
    10    5    9 1    
    11    8   10 ar   
    12   10   11 ar   
    13   11   12 ar   
    14   12   13 ar   
    15    9   13 ar   
    16   13   14 1    
    17   14   15 1    
    18   15   16 2    
    19   16   17 1    
    20   17   18 ar   
    21   18   19 ar   
    22   19   20 ar   
    23   20   21 ar   
    24   21   22 ar   
    25   17   22 ar   
    26   20   23 1    
    27   21   24 1    
    28   24   25 1    
    29    1   26 1    
    30    1   27 1    
    31    2   28 1    
    32    2   29 1    
    33    3   30 1    
    34    3   31 1    
    35    6   32 1    
    36    6   33 1    
    37   11   34 1    
    38   14   35 1    
    39   16   36 1    
    40   18   37 1    
    41   19   38 1    
    42   22   39 1    
    43   23   40 1    
    44   25   41 1    
    45   25   42 1    
    46   25   43 1    
@<TRIPOS>SUBSTRUCTURE
     1 ****        2 TEMP              0 ****  ****    0 ROOT 
@<TRIPOS>NORMAL
@<TRIPOS>FF_PBC
FORCE_FIELD_SETUP_FEATURE Force Field Setup information
v1.0  0 0.000000 0.000000 0.000000 0.000000 0.000000 0.000000 NONE 0 0 0 0 1 0 0 0 0 0 0 0 0
