#	Name:			PISM00202
#	Creating user name:	14062
#	Creation time:		Mon Apr 01 20:10:24 2019

#	Modifying user name:	14062
#	Modification time:	Mon Apr 01 20:14:21 2019

@<TRIPOS>MOLECULE
PISM00202
   59    60     1     2     0
SMALL
GAST_HUCK


@<TRIPOS>ATOM
      1 C1          1.7846    5.1006   -1.8938 C.ar      1 <1>        -0.0625 
      2 C2          2.4740    4.7225   -0.7410 C.ar      1 <1>        -0.0629 
      3 C3          1.7623    4.4876    0.4371 C.ar      1 <1>        -0.0568 
      4 C4          0.3719    4.6516    0.4699 C.ar      1 <1>        -0.0239 
      5 C5         -0.3254    5.0956   -0.6649 C.ar      1 <1>        -0.0096 
      6 C6          0.3952    5.2543   -1.8583 C.ar      1 <1>        -0.0546 
      7 C7         -1.7048    5.3588   -0.5689 C.ar      1 <1>        -0.0094 
      8 C8         -2.3912    4.9713    0.5895 C.ar      1 <1>        -0.0580 
      9 C9         -1.7031    4.4885    1.7030 C.ar      1 <1>        -0.0701 
     10 C10        -2.5312    6.0739   -1.6596 C.3       1 <1>         0.0949 
     11 C11        -1.8072    7.2726   -2.2225 C.2       1 <1>         0.2469 
     12 O12        -1.6855    7.4637   -3.4221 O.2       1 <1>        -0.3669 
     13 O13        -1.3035    8.1183   -1.3229 O.3       1 <1>        -0.2909 
     14 C14        -3.0657    5.0665   -2.7200 C.3       1 <1>        -0.0217 
     15 C15        -6.3780    4.5083   -6.6555 C.3       1 <1>        -0.0328 
     16 C16        -7.7210    5.0328   -7.2301 C.3       1 <1>         0.0328 
     17 N17        -7.9257    4.5593   -8.5975 N.am      1 <1>        -0.2625 
     18 C18        -8.4124    3.3232   -8.8343 C.2       1 <1>         0.3200 
     19 O19        -8.6854    2.5276   -7.9521 O.2       1 <1>        -0.3775 
     20 O20        -8.5574    3.1031  -10.1501 O.3       1 <1>        -0.2581 
     21 C21        -9.1117    1.8309  -10.5576 C.3       1 <1>         0.0905 
     22 C22        -8.1817    0.6383  -10.1909 C.3       1 <1>        -0.0320 
     23 C23        -9.1773    1.9475  -12.1074 C.3       1 <1>        -0.0320 
     24 C24       -10.5578    1.6087  -10.0230 C.3       1 <1>        -0.0320 
     25 C25        -0.3154    4.3620    1.6541 C.ar      1 <1>        -0.0627 
     26 C26        -4.2858    5.6361   -3.5002 C.3       1 <1>        -0.0487 
     27 H1          2.3306    5.2737   -2.8167 H         1 <1>         0.0602 
     28 H2          3.5535    4.6105   -0.7610 H         1 <1>         0.0616 
     29 C29        -4.7144    4.7222   -4.6830 C.3       1 <1>        -0.0527 
     30 H3          2.3049    4.1753    1.3242 H         1 <1>         0.0609 
     31 C31        -6.0146    5.2595   -5.3440 C.3       1 <1>        -0.0512 
     32 H4         -0.0978    5.4924   -2.7901 H         1 <1>         0.0628 
     33 H5         -3.4740    5.0423    0.6435 H         1 <1>         0.0535 
     34 H6         -2.2452    4.2147    2.6031 H         1 <1>         0.0596 
     35 H7         -3.4049    6.5326   -1.1718 H         1 <1>         0.0722 
     36 H8         -0.8550    8.8424   -1.7457 H         1 <1>         0.2541 
     37 H9         -3.3906    4.1451   -2.2088 H         1 <1>         0.0316 
     38 H10        -2.2654    4.7952   -3.4238 H         1 <1>         0.0316 
     39 H11        -6.4525    3.4226   -6.4735 H         1 <1>         0.0284 
     40 H12        -5.5847    4.6776   -7.4015 H         1 <1>         0.0284 
     41 H13        -7.7071    6.1353   -7.2315 H         1 <1>         0.0519 
     42 H14        -8.5542    4.7197   -6.5791 H         1 <1>         0.0519 
     43 H15        -7.6856    5.1609   -9.3624 H         1 <1>         0.1867 
     44 H16        -8.5610   -0.2928  -10.6405 H         1 <1>         0.0260 
     45 H17        -8.1148    0.4824   -9.1054 H         1 <1>         0.0260 
     46 H18        -7.1671    0.8248  -10.5756 H         1 <1>         0.0260 
     47 H19        -9.5835    1.0319  -12.5635 H         1 <1>         0.0260 
     48 H20        -8.1721    2.1248  -12.5201 H         1 <1>         0.0260 
     49 H21        -9.8180    2.7945  -12.3977 H         1 <1>         0.0260 
     50 H22       -11.0132    0.7287  -10.5040 H         1 <1>         0.0260 
     51 H23       -11.1767    2.4907  -10.2495 H         1 <1>         0.0260 
     52 H24       -10.5815    1.4398   -8.9376 H         1 <1>         0.0260 
     53 H25         0.2157    4.0330    2.5419 H         1 <1>         0.0546 
     54 H26        -4.0405    6.6335   -3.8990 H         1 <1>         0.0268 
     55 H27        -5.1340    5.7468   -2.8043 H         1 <1>         0.0268 
     56 H28        -4.8861    3.6945   -4.3237 H         1 <1>         0.0265 
     57 H29        -3.9047    4.6964   -5.4315 H         1 <1>         0.0265 
     58 H30        -6.8483    5.1712   -4.6275 H         1 <1>         0.0266 
     59 H31        -5.8785    6.3270   -5.5826 H         1 <1>         0.0266 
@<TRIPOS>BOND
     1    2    1 ar   
     2    2    3 ar   
     3    3    4 ar   
     4    4    5 ar   
     5    6    5 ar   
     6    1    6 ar   
     7    5    7 ar   
     8    7    8 ar   
     9    8    9 ar   
    10    9   25 ar   
    11    7   10 1    
    12   10   11 1    
    13   11   12 2    
    14   11   13 1    
    15   10   14 1    
    16   31   15 1    
    17   15   16 1    
    18   16   17 1    
    19   17   18 am   
    20   18   19 2    
    21   18   20 1    
    22   20   21 1    
    23   21   22 1    
    24   21   23 1    
    25   21   24 1    
    26    4   25 ar   
    27   14   26 1    
    28    1   27 1    
    29    2   28 1    
    30   26   29 1    
    31    3   30 1    
    32   29   31 1    
    33    6   32 1    
    34    8   33 1    
    35    9   34 1    
    36   10   35 1    
    37   13   36 1    
    38   14   37 1    
    39   14   38 1    
    40   15   39 1    
    41   15   40 1    
    42   16   41 1    
    43   16   42 1    
    44   17   43 1    
    45   22   44 1    
    46   22   45 1    
    47   22   46 1    
    48   23   47 1    
    49   23   48 1    
    50   23   49 1    
    51   24   50 1    
    52   24   51 1    
    53   24   52 1    
    54   25   53 1    
    55   26   54 1    
    56   26   55 1    
    57   29   56 1    
    58   29   57 1    
    59   31   58 1    
    60   31   59 1    
@<TRIPOS>SUBSTRUCTURE
     1 ****        2 TEMP              0 ****  ****    0 ROOT 
@<TRIPOS>NORMAL
@<TRIPOS>FF_PBC
FORCE_FIELD_SETUP_FEATURE Force Field Setup information
v1.0  0 0.000000 0.000000 0.000000 0.000000 0.000000 0.000000 NONE 0 0 0 0 1 0 0 0 0 0 0 0 0
@<TRIPOS>RENDERING_ATTRS
ANTIALIASED_LINES 
*
