#	Name:			PISM00962
#	Creating user name:	baoopengkun
#	Creation time:		Thu Dec 13 10:35:31 2018

#	Modifying user name:	baoopengkun
#	Modification time:	Thu Dec 13 10:58:15 2018

@<TRIPOS>MOLECULE
PISM00962
   41    43     1     1     0
SMALL
GAST_HUCK


@<TRIPOS>ATOM
      1 C1         -6.8594   11.3445   -7.3314 C.ar      1 <1>        -0.0039 
      2 C2         -6.3402   10.7875   -6.1620 C.ar      1 <1>         0.0716 
      3 C3         -7.1994   10.5161   -5.0972 C.ar      1 <1>        -0.0183 
      4 C4         -8.5723   10.7351   -5.2390 C.ar      1 <1>        -0.0372 
      5 C5         -9.1225   11.1576   -6.4587 C.ar      1 <1>        -0.0071 
      6 C6         -8.2304   11.5896   -7.4543 C.ar      1 <1>         0.0682 
      7 C7        -10.6644   11.1457   -6.6367 C.3       1 <1>         0.0856 
      8 O8        -11.2926   10.4591   -5.5338 O.3       1 <1>        -0.4222 
      9 C9        -11.1223   10.3936   -7.9274 C.3       1 <1>        -0.0365 
     10 C10       -11.1762   12.6116   -6.5800 C.3       1 <1>         0.0813 
     11 N11       -10.4194   13.3494   -5.5771 N.pl3     1 <1>        -0.1840 
     12 N12       -10.5460   13.2398   -4.2248 N.2       1 <1>        -0.1909 
     13 C13        -9.7512   14.0095   -3.5791 C.2       1 <1>         0.0618 
     14 N14        -9.0722   14.6645   -4.6628 N.2       1 <1>        -0.2870 
     15 C15        -9.5006   14.2472   -5.7657 C.2       1 <1>         0.1269 
     16 C16       -12.6642   10.2379   -8.0326 C.3       1 <1>        -0.0241 
     17 C17       -13.0091    9.4200   -9.2860 C.ar      1 <1>        -0.0434 
     18 C18       -13.1383   10.0556  -10.5263 C.ar      1 <1>        -0.0597 
     19 C19       -13.4590    9.3164  -11.6687 C.ar      1 <1>        -0.0546 
     20 C20       -13.6507    7.9356  -11.5774 C.ar      1 <1>         0.0330 
     21 C21       -13.5172    7.2952  -10.3429 C.ar      1 <1>        -0.0546 
     22 C22       -13.1940    8.0350   -9.2017 C.ar      1 <1>        -0.0597 
     23 Cl23      -14.0575    7.0094  -13.0077 Cl        1 <1>        -0.0771 
     24 Cl24       -4.6281   10.4404   -6.0295 Cl        1 <1>        -0.0423 
     25 Cl25       -8.7572   12.4706   -8.8750 Cl        1 <1>        -0.0424 
     26 H1         -6.1896   11.5942   -8.1475 H         1 <1>         0.0708 
     27 H2         -6.7987   10.1372   -4.1622 H         1 <1>         0.0703 
     28 H3         -9.2036   10.5760   -4.3712 H         1 <1>         0.0846 
     29 H4        -11.0745    9.5336   -5.4825 H         1 <1>         0.1956 
     30 H5        -10.6678    9.3897   -7.9229 H         1 <1>         0.0215 
     31 H6        -10.7935   10.8993   -8.8432 H         1 <1>         0.0215 
     32 H7        -12.2361   12.6319   -6.2845 H         1 <1>         0.0567 
     33 H8        -11.0886   13.1054   -7.5585 H         1 <1>         0.0567 
     34 H9         -9.6273   14.1326   -2.5042 H         1 <1>         0.0863 
     35 H10        -9.1352   14.6029   -6.7281 H         1 <1>         0.1361 
     36 H11       -13.1494   11.2235   -8.1048 H         1 <1>         0.0420 
     37 H12       -13.0718    9.7332   -7.1431 H         1 <1>         0.0420 
     38 H13       -12.9885   11.1275  -10.6083 H         1 <1>         0.0557 
     39 H14       -13.5596    9.8130  -12.6283 H         1 <1>         0.0606 
     40 H15       -13.6645    6.2222  -10.2726 H         1 <1>         0.0606 
     41 H16       -13.0856    7.5261   -8.2491 H         1 <1>         0.0557 
@<TRIPOS>BOND
     1    2    1 ar   
     2    2    3 ar   
     3    3    4 ar   
     4    4    5 ar   
     5    5    6 ar   
     6    1    6 ar   
     7    5    7 1    
     8    7    8 1    
     9    7    9 1    
    10    7   10 1    
    11   10   11 1    
    12   11   12 1    
    13   12   13 2    
    14   13   14 1    
    15   14   15 2    
    16   11   15 1    
    17    9   16 1    
    18   16   17 1    
    19   17   18 ar   
    20   18   19 ar   
    21   19   20 ar   
    22   20   21 ar   
    23   21   22 ar   
    24   17   22 ar   
    25   20   23 1    
    26    2   24 1    
    27    6   25 1    
    28    1   26 1    
    29    3   27 1    
    30    4   28 1    
    31    8   29 1    
    32    9   30 1    
    33    9   31 1    
    34   10   32 1    
    35   10   33 1    
    36   13   34 1    
    37   15   35 1    
    38   16   36 1    
    39   16   37 1    
    40   18   38 1    
    41   19   39 1    
    42   21   40 1    
    43   22   41 1    
@<TRIPOS>SUBSTRUCTURE
     1 ****        2 TEMP              0 ****  ****    0 ROOT 
@<TRIPOS>NORMAL
@<TRIPOS>FF_PBC
FORCE_FIELD_SETUP_FEATURE Force Field Setup information
v1.0  0 0.000000 0.000000 0.000000 0.000000 0.000000 0.000000 NONE 0 0 0 0 1 0 0 0 0 0 0 0 0
