#	Name:			PISM00328
#	Creating user name:	malab
#	Creation time:		Fri Apr 05 17:35:24 2019

#	Modifying user name:	malab
#	Modification time:	Fri Apr 05 17:36:10 2019

@<TRIPOS>MOLECULE
PISM00328
   41    41     1     1     0
SMALL
GAST_HUCK


@<TRIPOS>ATOM
      1 C1        -13.7833  -12.3075  -16.7115 C.3       1 <1>        -0.0294 
      2 C2        -15.2716  -12.7707  -16.7566 C.3       1 <1>         0.0195 
      3 C3        -15.7078  -12.9878  -18.1786 C.2       1 <1>         0.1467 
      4 C4        -15.0726  -12.2439  -19.2770 C.2       1 <1>         0.0132 
      5 C5        -14.1134  -11.3380  -19.0468 C.2       1 <1>        -0.0667 
      6 C6        -13.6366  -11.0459  -17.6316 C.3       1 <1>         0.0378 
      7 O7        -16.5962  -13.7879  -18.4275 O.2       1 <1>        -0.3649 
      8 C8        -12.8662  -13.4803  -17.1891 C.3       1 <1>        -0.0700 
      9 C9        -13.4111  -11.9384  -15.2410 C.3       1 <1>         0.0031 
     10 C10       -13.5281  -13.0924  -14.3543 C.1       1 <1>        -0.1064 
     11 C11       -13.6229  -14.0475  -13.6278 C.1       1 <1>        -0.1192 
     12 O12       -14.5172  -10.0372  -17.1024 O.3       1 <1>        -0.4654 
     13 C13       -12.1907  -10.5819  -17.6350 C.2       1 <1>        -0.0860 
     14 C14       -11.7414   -9.4285  -17.1243 C.2       1 <1>        -0.0144 
     15 H1        -15.9410  -12.0182  -16.3101 H         1 <1>         0.0000 
     16 H2        -15.4024  -13.7121  -16.1976 H         1 <1>         0.0000 
     17 H3        -15.4176  -12.4559  -20.2886 H         1 <1>         0.0000 
     18 H4        -13.1205  -14.4179  -16.6713 H         1 <1>         0.0000 
     19 H5        -11.8078  -13.2714  -16.9728 H         1 <1>         0.0000 
     20 H6        -12.9684  -13.6582  -18.2698 H         1 <1>         0.0000 
     21 C21       -13.4837  -10.5514  -20.1800 C.3       1 <1>        -0.0367 
     22 H7        -14.0701  -11.1499  -14.8465 H         1 <1>         0.0000 
     23 H8        -12.3703  -11.5867  -15.1715 H         1 <1>         0.0000 
     24 H9        -13.7059  -14.8875  -12.9919 H         1 <1>         0.0000 
     25 H10       -14.5546   -9.2491  -17.6335 H         1 <1>         0.0000 
     26 H11       -11.4545  -11.2391  -18.0975 H         1 <1>         0.0000 
     27 C27       -10.3101   -9.0594  -17.1398 C.2       1 <1>         0.0000 
     28 H13       -12.4218   -8.7102  -16.6697 H         1 <1>         0.0000 
     29 H14       -12.4170  -10.7978  -20.2847 H         1 <1>         0.0000 
     30 H15       -13.5853   -9.4755  -19.9782 H         1 <1>         0.0000 
     31 H16       -13.9642  -10.7562  -21.1491 H         1 <1>         0.0000 
     32 C32        -9.2908  -10.0915  -16.7180 C.3       1 <1>         0.0000 
     33 C33        -9.8983   -7.8329  -17.4975 C.2       1 <1>         0.0000 
     34 C34       -10.7556   -6.7162  -17.9547 C.2       1 <1>         0.0000 
     35 O35       -10.5085   -5.5838  -17.5753 O.2       1 <1>         0.0000 
     36 O36       -11.7837   -6.9039  -18.7883 O.3       1 <1>         0.0000 
     37 H12        -9.7643  -10.9602  -16.2359 H         1 <1>         0.0000 
     38 H17        -8.5860   -9.6560  -15.9950 H         1 <1>         0.0000 
     39 H18        -8.7303  -10.4393  -17.5975 H         1 <1>         0.0000 
     40 H19        -8.8321   -7.6056  -17.4547 H         1 <1>         0.0000 
     41 H20       -11.8566   -7.7882  -19.1283 H         1 <1>         0.0000 
@<TRIPOS>BOND
     1    2    1 1    
     2    2    3 1    
     3    3    4 1    
     4    4    5 2    
     5    5    6 1    
     6    1    6 1    
     7    3    7 2    
     8    1    8 1    
     9    1    9 1    
    10    9   10 1    
    11   10   11 3    
    12    6   12 1    
    13    6   13 1    
    14   13   14 2    
    15    2   15 1    
    16    2   16 1    
    17    4   17 1    
    18    8   18 1    
    19    8   19 1    
    20    8   20 1    
    21    5   21 1    
    22    9   22 1    
    23    9   23 1    
    24   11   24 1    
    25   12   25 1    
    26   13   26 1    
    27   14   27 1    
    28   14   28 1    
    29   21   29 1    
    30   21   30 1    
    31   21   31 1    
    32   27   32 1    
    33   27   33 2    
    34   33   34 1    
    35   34   35 2    
    36   34   36 1    
    37   32   37 1    
    38   32   38 1    
    39   32   39 1    
    40   33   40 1    
    41   36   41 1    
@<TRIPOS>SUBSTRUCTURE
     1 ****        2 TEMP              0 ****  ****    0 ROOT 
@<TRIPOS>NORMAL
@<TRIPOS>FF_PBC
FORCE_FIELD_SETUP_FEATURE Force Field Setup information
v1.0  0 0.000000 0.000000 0.000000 0.000000 0.000000 0.000000 NONE 0 0 0 0 0 0 0 0 0 0 0 0 0
