#	Name:			PISM00105
#	Creating user name:	baoopengkun
#	Creation time:		Sun Dec 16 14:51:14 2018

#	Modifying user name:	baoopengkun
#	Modification time:	Sun Dec 16 14:51:31 2018

@<TRIPOS>MOLECULE
PISM00105
   38    40     1     1     0
SMALL
GAST_HUCK


@<TRIPOS>ATOM
      1 C1         -5.2382   19.0649   -2.8939 C.ar      1 <1>        -0.0561 
      2 C2         -5.1814   17.7051   -2.5768 C.ar      1 <1>        -0.0632 
      3 C3         -4.2603   16.8771   -3.2228 C.ar      1 <1>        -0.0639 
      4 C4         -3.3985   17.4107   -4.1848 C.ar      1 <1>        -0.0583 
      5 C5         -3.4533   18.7728   -4.5056 C.ar      1 <1>        -0.0258 
      6 C6         -4.3759   19.6029   -3.8572 C.ar      1 <1>        -0.0183 
      7 C7         -2.5941   19.3138   -5.4689 C.ar      1 <1>        -0.0257 
      8 C8         -2.6482   20.6760   -5.7905 C.ar      1 <1>         0.1087 
      9 C9         -3.5682   21.5074   -5.1417 C.ar      1 <1>         0.0909 
     10 C10        -4.4269   20.9640   -4.1790 C.ar      1 <1>        -0.0340 
     11 C11        -3.6401   22.9861   -5.4730 C.2       1 <1>         0.2411 
     12 O12        -4.4633   23.6587   -4.8727 O.2       1 <1>        -0.3690 
     13 N13        -2.8555   23.5288   -6.3645 N.pl3     1 <1>        -0.1812 
     14 N14        -2.9470   24.8548   -6.6318 N.2       1 <1>        -0.1989 
     15 C15        -2.2212   25.4506   -7.4924 C.2       1 <1>         0.0262 
     16 C16        -2.3940   26.9374   -7.7186 C.ar      1 <1>        -0.0293 
     17 C17        -3.3434   27.6563   -6.9842 C.ar      1 <1>        -0.0720 
     18 C18        -3.5001   29.0295   -7.1908 C.ar      1 <1>        -0.0389 
     19 C19        -2.7111   29.6939   -8.1324 C.ar      1 <1>         0.1185 
     20 C20        -1.7609   28.9807   -8.8734 C.ar      1 <1>         0.1176 
     21 C21        -1.6054   27.6042   -8.6633 C.ar      1 <1>        -0.0331 
     22 O22        -2.8799   31.0678   -8.3247 O.3       1 <1>        -0.3351 
     23 O23        -0.9836   29.6682   -9.8135 O.3       1 <1>        -0.3366 
     24 O24        -1.7923   21.2246   -6.7560 O.3       1 <1>        -0.3286 
     25 H1         -5.9589   19.6968   -2.3837 H         1 <1>         0.0629 
     26 H2         -5.8522   17.2920   -1.8294 H         1 <1>         0.0591 
     27 H3         -4.2145   15.8203   -2.9773 H         1 <1>         0.0619 
     28 H4         -2.6877   16.7552   -4.6787 H         1 <1>         0.0593 
     29 H5         -1.8795   18.6693   -5.9705 H         1 <1>         0.0500 
     30 H6         -5.1413   21.6081   -3.6760 H         1 <1>         0.0690 
     31 H7         -2.1671   22.9407   -6.8600 H         1 <1>         0.2305 
     32 H8         -1.4737   24.9090   -8.0723 H         1 <1>         0.0783 
     33 H9         -3.9638   27.1522   -6.2495 H         1 <1>         0.0510 
     34 H10        -4.2359   29.5868   -6.6203 H         1 <1>         0.0519 
     35 H11        -0.8703   27.0468   -9.2337 H         1 <1>         0.0510 
     36 H12        -2.2873   31.4083   -8.9879 H         1 <1>         0.2456 
     37 H13        -0.3674   29.1231  -10.2902 H         1 <1>         0.2442 
     38 H14        -1.1993   20.5951   -7.1561 H         1 <1>         0.2505 
@<TRIPOS>BOND
     1    2    1 ar   
     2    2    3 ar   
     3    3    4 ar   
     4    4    5 ar   
     5    5    6 ar   
     6    1    6 ar   
     7    5    7 ar   
     8    7    8 ar   
     9    8    9 ar   
    10    9   10 ar   
    11    6   10 ar   
    12    9   11 1    
    13   11   12 2    
    14   11   13 1    
    15   13   14 1    
    16   14   15 2    
    17   15   16 1    
    18   16   17 ar   
    19   17   18 ar   
    20   18   19 ar   
    21   19   20 ar   
    22   20   21 ar   
    23   16   21 ar   
    24   19   22 1    
    25   20   23 1    
    26    8   24 1    
    27    1   25 1    
    28    2   26 1    
    29    3   27 1    
    30    4   28 1    
    31    7   29 1    
    32   10   30 1    
    33   13   31 1    
    34   15   32 1    
    35   17   33 1    
    36   18   34 1    
    37   21   35 1    
    38   22   36 1    
    39   23   37 1    
    40   24   38 1    
@<TRIPOS>SUBSTRUCTURE
     1 ****        2 TEMP              0 ****  ****    0 ROOT 
@<TRIPOS>NORMAL
@<TRIPOS>FF_PBC
FORCE_FIELD_SETUP_FEATURE Force Field Setup information
v1.0  0 0.000000 0.000000 0.000000 0.000000 0.000000 0.000000 NONE 0 0 0 0 1 0 0 0 0 0 0 0 0
