#	Name:			PISM00516
#	Creating user name:	malab
#	Creation time:		Thu Apr 04 12:30:38 2019

#	Modifying user name:	malab
#	Modification time:	Thu Apr 04 12:32:05 2019

@<TRIPOS>MOLECULE
PISM00516
   34    36     1     1     0
SMALL
GAST_HUCK


@<TRIPOS>ATOM
      1 N1         20.7949   10.9628    4.5766 N.ar      1 <1>        -0.2432 
      2 C2         21.0323   11.4254    3.3325 C.ar      1 <1>         0.0358 
      3 C3         22.3332   11.7626    2.9401 C.ar      1 <1>        -0.0053 
      4 C4         23.3589   11.4815    3.8490 C.ar      1 <1>         0.0358 
      5 N5         23.0762   11.0016    5.0764 N.ar      1 <1>        -0.2432 
      6 C6         21.8030   10.7690    5.4496 C.ar      1 <1>         0.1071 
      7 C7         22.6749   12.4061    1.5796 C.3       1 <1>         0.0774 
      8 O8         23.1886   13.7250    1.8534 O.3       1 <1>        -0.4509 
      9 C9         21.4389   12.6984    0.7054 C.ar      1 <1>        -0.0547 
     10 C10        20.5123   13.6459    1.1595 C.ar      1 <1>        -0.0534 
     11 C11        19.3606   13.9373    0.4236 C.ar      1 <1>        -0.0429 
     12 C12        19.1311   13.2933   -0.7947 C.ar      1 <1>        -0.0432 
     13 C13        20.0591   12.3628   -1.2691 C.ar      1 <1>        -0.0429 
     14 C14        21.2057   12.0681   -0.5245 C.ar      1 <1>        -0.0534 
     15 C15        23.7272   11.5448    0.8494 C.ar      1 <1>        -0.0405 
     16 C16        24.8287   12.1522    0.2316 C.ar      1 <1>        -0.0526 
     17 C17        25.8603   11.3804   -0.3112 C.ar      1 <1>        -0.0285 
     18 C18        25.7780    9.9865   -0.2824 C.ar      1 <1>         0.0618 
     19 C19        24.6443    9.3744    0.2562 C.ar      1 <1>        -0.0143 
     20 C20        23.6088   10.1487    0.7874 C.ar      1 <1>         0.0517 
     21 Cl21       27.0869    9.0134   -0.9215 Cl        1 <1>        -0.0514 
     22 Cl22       22.1659    9.3289    1.3521 Cl        1 <1>        -0.0523 
     23 H1         20.1935   11.5179    2.6543 H         1 <1>         0.1077 
     24 H2         24.3966   11.6431    3.5790 H         1 <1>         0.1077 
     25 H3         21.5893   10.4232    6.4548 H         1 <1>         0.1263 
     26 H4         23.9558   13.7438    2.4134 H         1 <1>         0.1845 
     27 H5         20.6860   14.1633    2.0980 H         1 <1>         0.0764 
     28 H6         18.6453   14.6634    0.7983 H         1 <1>         0.0671 
     29 H7         18.2375   13.5163   -1.3696 H         1 <1>         0.0776 
     30 H8         19.8884   11.8676   -2.2206 H         1 <1>         0.0671 
     31 H9         21.9060   11.3460   -0.9258 H         1 <1>         0.0764 
     32 H10        24.8953   13.2334    0.1638 H         1 <1>         0.0764 
     33 H11        26.7262   11.8610   -0.7549 H         1 <1>         0.0678 
     34 H12        24.5670    8.2931    0.2589 H         1 <1>         0.0682 
@<TRIPOS>BOND
     1    2    1 ar   
     2    2    3 ar   
     3    3    4 ar   
     4    4    5 ar   
     5    5    6 ar   
     6    1    6 ar   
     7    3    7 1    
     8    7    8 1    
     9    7    9 1    
    10    9   10 ar   
    11   10   11 ar   
    12   11   12 ar   
    13   12   13 ar   
    14   13   14 ar   
    15    9   14 ar   
    16    7   15 1    
    17   15   16 ar   
    18   16   17 ar   
    19   17   18 ar   
    20   18   19 ar   
    21   19   20 ar   
    22   15   20 ar   
    23   18   21 1    
    24   20   22 1    
    25    2   23 1    
    26    4   24 1    
    27    6   25 1    
    28    8   26 1    
    29   10   27 1    
    30   11   28 1    
    31   12   29 1    
    32   13   30 1    
    33   14   31 1    
    34   16   32 1    
    35   17   33 1    
    36   19   34 1    
@<TRIPOS>SUBSTRUCTURE
     1 ****        2 TEMP              0 ****  ****    0 ROOT 
@<TRIPOS>NORMAL
@<TRIPOS>FF_PBC
FORCE_FIELD_SETUP_FEATURE Force Field Setup information
v1.0  0 0.000000 0.000000 0.000000 0.000000 0.000000 0.000000 NONE 0 0 0 0 1 0 0 0 0 0 0 0 0
