#	Name:			PISM00031
#	Creating user name:	baoopengkun
#	Creation time:		Sat Nov 17 17:44:30 2018

#	Modifying user name:	baoopengkun
#	Modification time:	Sat Nov 17 17:47:48 2018

@<TRIPOS>MOLECULE
PISM00031
   34    36     1     2     0
SMALL
GAST_HUCK


@<TRIPOS>ATOM
      1 C1         -2.6961    4.5490    5.6204 C.ar      1 <1>        -0.0511 
      2 C2         -1.9578    5.3841    4.7760 C.ar      1 <1>        -0.0607 
      3 C3         -1.8424    5.0851    3.4167 C.ar      1 <1>        -0.0616 
      4 C4         -2.4698    3.9460    2.9074 C.ar      1 <1>        -0.0488 
      5 C5         -3.2078    3.1140    3.7530 C.ar      1 <1>         0.0244 
      6 C6         -3.3316    3.4038    5.1189 C.ar      1 <1>         0.0043 
      7 C7         -4.0859    2.5366    5.9253 C.ar      1 <1>        -0.0201 
      8 C8         -4.6885    1.4202    5.3330 C.ar      1 <1>        -0.0092 
      9 C9         -4.5301    1.1845    3.9645 C.ar      1 <1>         0.1135 
     10 N10        -3.7953    2.0266    3.2145 N.ar      1 <1>        -0.2989 
     11 N11        -5.1340    0.0650    3.3407 N.3       1 <1>        -0.1491 
     12 N12        -6.1377    0.0602    3.4795 N.2       1 <1>        -0.2031 
     13 C13        -6.9401    0.5866    2.6394 C.2       1 <1>         0.0499 
     14 C14        -8.4294    0.5562    2.9058 C.ar      1 <1>         0.0164 
     15 C15        -8.9314   -0.0263    4.0738 C.ar      1 <1>        -0.0240 
     16 C16       -10.3112   -0.0426    4.2964 C.ar      1 <1>         0.0117 
     17 N17       -11.1539    0.5000    3.3939 N.ar      1 <1>        -0.2974 
     18 C18       -10.6993    1.0692    2.2588 C.ar      1 <1>         0.0117 
     19 C19        -9.3284    1.1108    1.9891 C.ar      1 <1>        -0.0240 
     20 C20        -4.2677    2.7787    7.4323 C.3       1 <1>        -0.0218 
     21 H1         -2.7599    4.8157    6.6687 H         1 <1>         0.0649 
     22 H2         -1.4717    6.2687    5.1767 H         1 <1>         0.0597 
     23 H3         -1.2694    5.7329    2.7603 H         1 <1>         0.0638 
     24 H4         -2.3863    3.7030    1.8531 H         1 <1>         0.0597 
     25 H5         -5.2822    0.7293    5.9214 H         1 <1>         0.0564 
     26 H6         -4.6990   -0.8454    3.7277 H         1 <1>         0.1994 
     27 H7         -6.5753    1.0651    1.7268 H         1 <1>         0.0930 
     28 H8         -8.2599   -0.4635    4.8054 H         1 <1>         0.0728 
     29 H9        -10.7154   -0.4921    5.1974 H         1 <1>         0.0822 
     30 H10       -11.4090    1.4947    1.5569 H         1 <1>         0.0822 
     31 H11        -8.9709    1.5710    1.0738 H         1 <1>         0.0728 
     32 H12        -3.2851    2.7802    7.9277 H         1 <1>         0.0435 
     33 H13        -4.8836    1.9998    7.9061 H         1 <1>         0.0435 
     34 H14        -4.7647    3.7472    7.5932 H         1 <1>         0.0435 
@<TRIPOS>BOND
     1    2    1 ar   
     2    2    3 ar   
     3    3    4 ar   
     4    4    5 ar   
     5    5    6 ar   
     6    1    6 ar   
     7    6    7 ar   
     8    7    8 ar   
     9    8    9 ar   
    10    9   10 ar   
    11    5   10 ar   
    12    9   11 1    
    13   11   12 1    
    14   12   13 2    
    15   13   14 1    
    16   14   15 ar   
    17   15   16 ar   
    18   16   17 ar   
    19   17   18 ar   
    20   18   19 ar   
    21   14   19 ar   
    22    7   20 1    
    23    1   21 1    
    24    2   22 1    
    25    3   23 1    
    26    4   24 1    
    27    8   25 1    
    28   11   26 1    
    29   13   27 1    
    30   15   28 1    
    31   16   29 1    
    32   18   30 1    
    33   19   31 1    
    34   20   32 1    
    35   20   33 1    
    36   20   34 1    
@<TRIPOS>SUBSTRUCTURE
     1 ****        2 TEMP              0 ****  ****    0 ROOT 
@<TRIPOS>NORMAL
@<TRIPOS>FF_PBC
FORCE_FIELD_SETUP_FEATURE Force Field Setup information
v1.0  0 0.000000 0.000000 0.000000 0.000000 0.000000 0.000000 NONE 0 0 0 0 1 0 0 0 0 0 0 0 0
@<TRIPOS>RENDERING_ATTRS
ANTIALIASED_LINES 
*
