#	Name:			PISM00230
#	Creating user name:	14062
#	Creation time:		Sat Apr 06 01:30:46 2019

#	Modifying user name:	14062
#	Modification time:	Sat Apr 06 01:33:26 2019

@<TRIPOS>MOLECULE
PISM00230
   41    42     1     1     0
SMALL
GAST_HUCK


@<TRIPOS>ATOM
      1 C1         -0.4828    2.2511    2.8150 C.ar      1 <1>         0.0522 
      2 C2         -1.3590    3.2514    3.2549 C.ar      1 <1>         0.0794 
      3 C3         -0.8580    4.5305    3.5248 C.ar      1 <1>        -0.0353 
      4 C4          0.4752    4.8434    3.2448 C.ar      1 <1>        -0.0517 
      5 C5          1.3185    3.8717    2.7005 C.ar      1 <1>        -0.0518 
      6 C6          0.8402    2.5749    2.4952 C.ar      1 <1>        -0.0382 
      7 C7         -2.8402    2.9908    3.4298 C.2       1 <1>         0.2671 
      8 O8         -3.3671    2.0549    2.8484 O.2       1 <1>        -0.3548 
      9 O9         -3.5568    3.8158    4.2100 O.3       1 <1>        -0.2773 
     10 C10        -4.9517    3.4649    4.3122 C.3       1 <1>         0.0729 
     11 C11        -5.6405    4.4977    5.2350 C.3       1 <1>        -0.0373 
     12 C12        -0.9242    0.8095    2.6951 C.2       1 <1>         0.1546 
     13 O13        -1.4298    0.2730    3.6682 O.2       1 <1>        -0.3722 
     14 C14        -0.7288    0.0256    1.4139 C.ar      1 <1>         0.0212 
     15 C15        -0.8411   -1.3686    1.4240 C.ar      1 <1>        -0.0547 
     16 C16        -0.6350   -2.1065    0.2547 C.ar      1 <1>        -0.0378 
     17 C17        -0.2998   -1.4635   -0.9422 C.ar      1 <1>         0.0456 
     18 C18        -0.2056   -0.0672   -0.9552 C.ar      1 <1>        -0.0378 
     19 C19        -0.4384    0.6729    0.2078 C.ar      1 <1>        -0.0547 
     20 N20        -0.0692   -2.1823   -2.0714 N.pl3     1 <1>        -0.3118 
     21 C21         0.7212   -3.4124   -2.0149 C.3       1 <1>         0.0163 
     22 C22        -0.6013   -1.7323   -3.3581 C.3       1 <1>         0.0163 
     23 H1         -1.5057    5.2931    3.9464 H         1 <1>         0.0684 
     24 H2          0.8548    5.8405    3.4470 H         1 <1>         0.0665 
     25 H3          2.3434    4.1214    2.4433 H         1 <1>         0.0665 
     26 H4          1.5044    1.8148    2.0957 H         1 <1>         0.0682 
     27 H5         -5.0675    2.4569    4.7469 H         1 <1>         0.0608 
     28 H6         -5.4344    3.4872    3.3198 H         1 <1>         0.0608 
     29 H7         -5.1707    4.4826    6.2307 H         1 <1>         0.0255 
     30 H8         -6.7117    4.2649    5.3423 H         1 <1>         0.0255 
     31 H9         -5.5364    5.5085    4.8110 H         1 <1>         0.0255 
     32 H10        -1.0895   -1.8860    2.3455 H         1 <1>         0.0637 
     33 H11        -0.7433   -3.1853    0.2830 H         1 <1>         0.0531 
     34 H12         0.0554    0.4540   -1.8700 H         1 <1>         0.0531 
     35 H13        -0.3945    1.7559    0.1620 H         1 <1>         0.0637 
     36 H14         0.0489   -4.2778   -1.9142 H         1 <1>         0.0480 
     37 H15         1.4242   -3.4016   -1.1671 H         1 <1>         0.0480 
     38 H16         1.3109   -3.5301   -2.9370 H         1 <1>         0.0480 
     39 H17        -0.8872   -2.5973   -3.9760 H         1 <1>         0.0480 
     40 H18         0.1709   -1.1584   -3.8922 H         1 <1>         0.0480 
     41 H19        -1.4954   -1.1020   -3.2311 H         1 <1>         0.0480 
@<TRIPOS>BOND
     1    2    1 ar   
     2    2    3 ar   
     3    3    4 ar   
     4    4    5 ar   
     5    5    6 ar   
     6    1    6 ar   
     7    2    7 1    
     8    7    8 2    
     9    7    9 1    
    10    9   10 1    
    11   10   11 1    
    12    1   12 1    
    13   12   13 2    
    14   12   14 1    
    15   14   15 ar   
    16   15   16 ar   
    17   16   17 ar   
    18   17   18 ar   
    19   18   19 ar   
    20   14   19 ar   
    21   17   20 1    
    22   20   21 1    
    23   20   22 1    
    24    3   23 1    
    25    4   24 1    
    26    5   25 1    
    27    6   26 1    
    28   10   27 1    
    29   10   28 1    
    30   11   29 1    
    31   11   30 1    
    32   11   31 1    
    33   15   32 1    
    34   16   33 1    
    35   18   34 1    
    36   19   35 1    
    37   21   36 1    
    38   21   37 1    
    39   21   38 1    
    40   22   39 1    
    41   22   40 1    
    42   22   41 1    
@<TRIPOS>SUBSTRUCTURE
     1 ****        2 TEMP              0 ****  ****    0 ROOT 
@<TRIPOS>NORMAL
@<TRIPOS>FF_PBC
FORCE_FIELD_SETUP_FEATURE Force Field Setup information
v1.0  0 0.000000 0.000000 0.000000 0.000000 0.000000 0.000000 NONE 0 0 0 0 1 0 0 0 0 0 0 0 0
