#	Name:			PISM00520
#	Creating user name:	baoopengkun
#	Creation time:		Sun Dec 16 00:26:58 2018

#	Modifying user name:	baoopengkun
#	Modification time:	Sun Dec 16 00:31:14 2018

@<TRIPOS>MOLECULE
PISM00520
   71    72     1     1     0
SMALL
GAST_HUCK


@<TRIPOS>ATOM
      1 Cl1         5.9571    2.3981    6.1763 Cl        1 <1>        -0.0770 
      2 C2          5.5783    2.2752    7.8821 C.ar      1 <1>         0.0335 
      3 C3          5.9957    1.1629    8.6157 C.ar      1 <1>        -0.0405 
      4 C4          5.6967    1.0590    9.9771 C.ar      1 <1>         0.0444 
      5 C5          4.9729    2.0740   10.6205 C.ar      1 <1>         0.0026 
      6 C6          4.5581    3.1862    9.8768 C.ar      1 <1>        -0.0565 
      7 C7          4.8572    3.2891    8.5156 C.ar      1 <1>        -0.0543 
      8 Cl8         6.2557   -0.3611   10.8422 Cl        1 <1>        -0.0770 
      9 C9          4.6314    2.0078   12.1202 C.3       1 <1>         0.1213 
     10 O10         3.3226    2.5975   12.2991 O.3       1 <1>        -0.3610 
     11 C11         5.7072    2.8370   12.8663 C.3       1 <1>         0.0945 
     12 N12         7.0307    2.3080   12.5497 N.pl3     1 <1>        -0.2477 
     13 C13         7.6296    1.3309   13.1967 C.2       1 <1>         0.0365 
     14 C14         8.8401    1.0969   12.6533 C.2       1 <1>        -0.0236 
     15 N15         8.8683    2.0777   11.6031 N.2       1 <1>        -0.3302 
     16 C16         7.8038    2.7390   11.6003 C.2       1 <1>         0.0977 
     17 C17         2.4572    1.9425   13.2520 C.3       1 <1>         0.0508 
     18 C18         2.9747    1.9658   14.7143 C.3       1 <1>        -0.0292 
     19 C19         1.8958    1.4510   15.7067 C.3       1 <1>        -0.0510 
     20 C20         2.4207    1.4695   17.1684 C.3       1 <1>        -0.0528 
     21 C21         1.3374    0.9763   18.1664 C.3       1 <1>        -0.0509 
     22 C22         1.8649    1.0030   19.6270 C.3       1 <1>        -0.0348 
     23 C23         0.7801    0.5313   20.6326 C.3       1 <1>         0.0487 
     24 C24         1.2647    0.5670   22.0575 C.2       1 <1>         0.2337 
     25 O25         2.4145    0.8632   22.3427 O.2       1 <1>        -0.3704 
     26 O26         0.3394    0.2514   22.9746 O.3       1 <1>        -0.2769 
     27 C27         0.8265    0.3084   24.3305 C.3       1 <1>         0.0768 
     28 C28        -0.3403   -0.0603   25.2811 C.3       1 <1>        -0.0250 
     29 C29         0.0958   -0.0043   26.7709 C.3       1 <1>        -0.0507 
     30 C30        -1.0790   -0.3696   27.7191 C.3       1 <1>        -0.0530 
     31 C31        -0.6438   -0.3034   29.2088 C.3       1 <1>        -0.0533 
     32 C32        -1.8164   -0.6690   30.1591 C.3       1 <1>        -0.0559 
     33 C33        -1.3793   -0.5991   31.6455 C.3       1 <1>        -0.0653 
     34 H1          6.5569    0.3753    8.1244 H         1 <1>         0.0612 
     35 H2          3.9990    3.9853   10.3534 H         1 <1>         0.0558 
     36 H3          4.5310    4.1551    7.9486 H         1 <1>         0.0607 
     37 H4          4.6579    0.9598   12.4553 H         1 <1>         0.0792 
     38 H5          5.5544    2.8125   13.9541 H         1 <1>         0.0675 
     39 H6          5.6281    3.8895   12.5505 H         1 <1>         0.0675 
     40 H7          7.2239    0.7793   14.0444 H         1 <1>         0.0860 
     41 H8          9.5977    0.3650   12.9303 H         1 <1>         0.0444 
     42 H9          7.5896    3.5429   10.8952 H         1 <1>         0.1215 
     43 H10         2.2456    0.9089   12.9320 H         1 <1>         0.0562 
     44 H11         1.5104    2.5034   13.2069 H         1 <1>         0.0562 
     45 H12         3.2482    3.0009   14.9762 H         1 <1>         0.0287 
     46 H13         3.8658    1.3256   14.8066 H         1 <1>         0.0287 
     47 H14         1.6097    0.4217   15.4337 H         1 <1>         0.0266 
     48 H15         0.9993    2.0890   15.6364 H         1 <1>         0.0266 
     49 H16         2.7187    2.4973   17.4343 H         1 <1>         0.0265 
     50 H17         3.3095    0.8217   17.2458 H         1 <1>         0.0265 
     51 H18         1.0390   -0.0522   17.9039 H         1 <1>         0.0267 
     52 H19         0.4491    1.6246   18.0884 H         1 <1>         0.0267 
     53 H20         2.1718    2.0297   19.8876 H         1 <1>         0.0291 
     54 H21         2.7468    0.3465   19.7113 H         1 <1>         0.0291 
     55 H22         0.4780   -0.5018   20.4018 H         1 <1>         0.0518 
     56 H23        -0.1058    1.1807   20.5586 H         1 <1>         0.0518 
     57 H24         1.1824    1.3255   24.5682 H         1 <1>         0.0613 
     58 H25         1.6556   -0.4055   24.4733 H         1 <1>         0.0613 
     59 H26        -0.6935   -1.0746   25.0326 H         1 <1>         0.0291 
     60 H27        -1.1707    0.6444   25.1102 H         1 <1>         0.0291 
     61 H28         0.4515    1.0120   27.0080 H         1 <1>         0.0266 
     62 H29         0.9283   -0.7085   26.9335 H         1 <1>         0.0266 
     63 H30        -1.4320   -1.3879   27.4869 H         1 <1>         0.0265 
     64 H31        -1.9136    0.3314   27.5528 H         1 <1>         0.0265 
     65 H32        -0.2924    0.7153   29.4415 H         1 <1>         0.0265 
     66 H33         0.1914   -1.0033   29.3766 H         1 <1>         0.0265 
     67 H34        -2.1691   -1.6896   29.9347 H         1 <1>         0.0263 
     68 H35        -2.6548    0.0291   29.9971 H         1 <1>         0.0263 
     69 H36        -0.5544   -1.3030   31.8370 H         1 <1>         0.0230 
     70 H37        -2.2235   -0.8621   32.3023 H         1 <1>         0.0230 
     71 H38        -1.0421    0.4180   31.8995 H         1 <1>         0.0230 
@<TRIPOS>BOND
     1    2    1 1    
     2    2    3 ar   
     3    3    4 ar   
     4    4    5 ar   
     5    5    6 ar   
     6    6    7 ar   
     7    2    7 ar   
     8    4    8 1    
     9    5    9 1    
    10    9   10 1    
    11    9   11 1    
    12   11   12 1    
    13   12   13 1    
    14   13   14 2    
    15   14   15 1    
    16   15   16 2    
    17   12   16 1    
    18   10   17 1    
    19   17   18 1    
    20   18   19 1    
    21   19   20 1    
    22   20   21 1    
    23   21   22 1    
    24   22   23 1    
    25   23   24 1    
    26   24   25 2    
    27   24   26 1    
    28   26   27 1    
    29   27   28 1    
    30   28   29 1    
    31   29   30 1    
    32   30   31 1    
    33   31   32 1    
    34   32   33 1    
    35    3   34 1    
    36    6   35 1    
    37    7   36 1    
    38    9   37 1    
    39   11   38 1    
    40   11   39 1    
    41   13   40 1    
    42   14   41 1    
    43   16   42 1    
    44   17   43 1    
    45   17   44 1    
    46   18   45 1    
    47   18   46 1    
    48   19   47 1    
    49   19   48 1    
    50   20   49 1    
    51   20   50 1    
    52   21   51 1    
    53   21   52 1    
    54   22   53 1    
    55   22   54 1    
    56   23   55 1    
    57   23   56 1    
    58   27   57 1    
    59   27   58 1    
    60   28   59 1    
    61   28   60 1    
    62   29   61 1    
    63   29   62 1    
    64   30   63 1    
    65   30   64 1    
    66   31   65 1    
    67   31   66 1    
    68   32   67 1    
    69   32   68 1    
    70   33   69 1    
    71   33   70 1    
    72   33   71 1    
@<TRIPOS>SUBSTRUCTURE
     1 ****        2 TEMP              0 ****  ****    0 ROOT 
@<TRIPOS>NORMAL
@<TRIPOS>FF_PBC
FORCE_FIELD_SETUP_FEATURE Force Field Setup information
v1.0  0 0.000000 0.000000 0.000000 0.000000 0.000000 0.000000 NONE 0 0 0 0 1 0 0 0 0 0 0 0 0
