#	Name:			PISM00938.1
#	Creating user name:	baoopengkun
#	Creation time:		Wed Dec 12 22:41:34 2018

#	Modifying user name:	baoopengkun
#	Modification time:	Wed Dec 12 23:09:48 2018

@<TRIPOS>MOLECULE
PISM00938.1
   21    21     1     1     0
SMALL
GAST_HUCK


@<TRIPOS>ATOM
      1 C1          2.1303   -6.4373    3.6078 C.3       1 <1>         0.0097 
      2 C2          2.0327   -6.8974    5.0362 C.2       1 <1>         0.0852 
      3 C3          3.0047   -7.2503    5.8749 C.2       1 <1>        -0.0191 
      4 C4          2.4513   -7.6317    7.2305 C.3       1 <1>         0.1576 
      5 O5          1.0252   -7.5002    7.0844 O.3       1 <1>        -0.3177 
      6 C6          0.8304   -7.0662    5.8448 C.2       1 <1>         0.2937 
      7 C7          4.4901   -7.2960    5.6187 C.3       1 <1>        -0.0369 
      8 O8          2.8563   -6.6855    8.2252 O.3       1 <1>        -0.4400 
      9 O9         -0.2839   -6.8340    5.4067 O.2       1 <1>        -0.3278 
     10 C10         2.7576   -9.0494    7.6431 C.2       1 <1>        -0.0660 
     11 C11         2.7266  -10.0755    6.7841 C.2       1 <1>        -0.0687 
     12 H1          2.7823   -5.5534    3.5451 H         1 <1>         0.0560 
     13 H2          1.1339   -6.1711    3.2243 H         1 <1>         0.0560 
     14 H3          2.5476   -7.2426    2.9853 H         1 <1>         0.0560 
     15 H4          4.8905   -8.2822    5.8959 H         1 <1>         0.0386 
     16 H5          4.9957   -6.5247    6.2176 H         1 <1>         0.0386 
     17 H6          4.7164   -7.1147    4.5579 H         1 <1>         0.0386 
     18 H7          3.7899   -6.7170    8.3985 H         1 <1>         0.1841 
     19 H8          3.0011   -9.2328    8.6902 H         1 <1>         0.0501 
     20 H9          2.4736   -9.9295    5.7345 H         1 <1>         0.1060 
     21 H10         2.9512  -11.0879    7.1202 H         1 <1>         0.1060 
@<TRIPOS>BOND
     1    2    1 1    
     2    2    3 2    
     3    3    4 1    
     4    4    5 1    
     5    5    6 1    
     6    2    6 1    
     7    3    7 1    
     8    4    8 1    
     9    6    9 2    
    10    4   10 1    
    11   10   11 2    
    12    1   12 1    
    13    1   13 1    
    14    1   14 1    
    15    7   15 1    
    16    7   16 1    
    17    7   17 1    
    18    8   18 1    
    19   10   19 1    
    20   11   20 1    
    21   11   21 1    
@<TRIPOS>SUBSTRUCTURE
     1 ****        2 TEMP              0 ****  ****    0 ROOT 
@<TRIPOS>NORMAL
@<TRIPOS>FF_PBC
FORCE_FIELD_SETUP_FEATURE Force Field Setup information
v1.0  0 0.000000 0.000000 0.000000 0.000000 0.000000 0.000000 NONE 0 0 0 0 1 0 0 0 0 0 0 0 0
