#	Name:			PISM00909
#	Creating user name:	baoopengkun
#	Creation time:		Fri Dec 14 10:31:16 2018

#	Modifying user name:	baoopengkun
#	Modification time:	Fri Dec 14 10:39:51 2018

@<TRIPOS>MOLECULE
PISM00909
   29    31     1     1     0
SMALL
GAST_HUCK


@<TRIPOS>ATOM
      1 C1         20.3728   12.5147   -7.2935 C.ar      1 <1>        -0.0488 
      2 C2         19.6947   13.2651   -6.3239 C.ar      1 <1>        -0.0346 
      3 C3         19.7515   14.6703   -6.3039 C.ar      1 <1>         0.0460 
      4 C4         20.5005   15.3562   -7.2726 C.ar      1 <1>        -0.0192 
      5 C5         21.1737   14.6011   -8.2317 C.ar      1 <1>         0.0623 
      6 C6         21.1132   13.2159   -8.2433 C.ar      1 <1>         0.0597 
      7 C7         21.9603   12.7801   -9.4130 C.2       1 <1>         0.2347 
      8 N8         22.4734   13.8641  -10.0273 N.am      1 <1>        -0.1420 
      9 C9         22.0556   14.9778   -9.3961 C.2       1 <1>         0.2415 
     10 O10        22.1395   11.6164   -9.7289 O.2       1 <1>        -0.3731 
     11 O11        22.3365   16.1242   -9.7002 O.2       1 <1>        -0.3668 
     12 C12        23.3103   13.8377  -11.2136 C.3       1 <1>         0.2213 
     13 O13        22.4927   13.4786  -12.3452 O.3       1 <1>        -0.2348 
     14 C14        22.9750   12.3168  -12.7697 C.2       1 <1>         0.2491 
     15 C15        24.1239   11.8060  -12.0299 C.2       1 <1>         0.0288 
     16 C16        24.3361   12.7353  -11.1001 C.2       1 <1>        -0.0059 
     17 C17        24.8938   10.5371  -12.2724 C.3       1 <1>        -0.0323 
     18 O18        22.4915   11.7277  -13.7213 O.2       1 <1>        -0.3691 
     19 N19        19.0835   15.3654   -5.3497 N.pl3     1 <1>        -0.3333 
     20 H20        18.5364   14.8748   -4.6262 H         1 <1>         0.1738 
     21 H21        19.1120   16.3963   -5.3333 H         1 <1>         0.1738 
     22 H1         20.3291   11.4305   -7.3120 H         1 <1>         0.0648 
     23 H2         19.1138   12.7375   -5.5743 H         1 <1>         0.0561 
     24 H3         20.5648   16.4386   -7.2894 H         1 <1>         0.0584 
     25 H4         23.8006   14.8081  -11.3982 H         1 <1>         0.1152 
     26 H5         25.1287   12.7039  -10.3538 H         1 <1>         0.0702 
     27 H6         24.5146    9.7509  -11.6029 H         1 <1>         0.0347 
     28 H7         25.9648   10.6944  -12.0751 H         1 <1>         0.0347 
     29 H8         24.7670   10.2116  -13.3157 H         1 <1>         0.0347 
@<TRIPOS>BOND
     1    2    1 ar   
     2    2    3 ar   
     3    3    4 ar   
     4    4    5 ar   
     5    5    6 ar   
     6    1    6 ar   
     7    6    7 1    
     8    7    8 am   
     9    8    9 am   
    10    5    9 1    
    11    7   10 2    
    12    9   11 2    
    13    8   12 1    
    14   12   13 1    
    15   13   14 1    
    16   14   15 1    
    17   15   16 2    
    18   12   16 1    
    19   15   17 1    
    20   14   18 2    
    21    3   19 1    
    22   19   20 1    
    23   19   21 1    
    24    1   22 1    
    25    2   23 1    
    26    4   24 1    
    27   12   25 1    
    28   16   26 1    
    29   17   27 1    
    30   17   28 1    
    31   17   29 1    
@<TRIPOS>SUBSTRUCTURE
     1 ****        2 TEMP              0 ****  ****    0 ROOT 
@<TRIPOS>NORMAL
@<TRIPOS>FF_PBC
FORCE_FIELD_SETUP_FEATURE Force Field Setup information
v1.0  0 0.000000 0.000000 0.000000 0.000000 0.000000 0.000000 NONE 0 0 0 0 1 0 0 0 0 0 0 0 0
