#	Name:			PISM00864
#	Creating user name:	baoopengkun
#	Creation time:		Thu Dec 13 15:12:19 2018

#	Modifying user name:	baoopengkun
#	Modification time:	Thu Dec 13 23:15:19 2018

@<TRIPOS>MOLECULE
PISM00864
   26    27     1     1     0
SMALL
GAST_HUCK


@<TRIPOS>ATOM
      1 F1          0.5649    1.9650    1.8983 F         1 <1>        -0.1944 
      2 C2         -1.6881    2.3696    2.4620 C.ar      1 <1>        -0.0502 
      3 C3         -3.0232    2.4602    2.0638 C.ar      1 <1>        -0.0862 
      4 C4         -3.3713    2.2227    0.7310 C.ar      1 <1>        -0.0491 
      5 C5         -2.3978    1.8953   -0.2249 C.ar      1 <1>         0.1588 
      6 C6         -1.0596    1.8055    0.1883 C.ar      1 <1>         0.1555 
      7 C7         -0.7100    2.0441    1.5212 C.ar      1 <1>         0.1490 
      8 N8         -2.7508    1.6742   -1.5204 N.pl3     1 <1>         0.1171 
      9 O9         -0.0591    1.4840   -0.7292 O.3       1 <1>        -0.2771 
     10 C10         0.6612    2.6367   -1.1795 C.3       1 <1>         0.2323 
     11 O11        -0.2740    3.6018   -1.7028 O.3       1 <1>        -0.2319 
     12 C12        -0.0220    3.6604   -3.0040 C.2       1 <1>         0.2494 
     13 C13         1.0831    2.8282   -3.4674 C.2       1 <1>         0.0291 
     14 C14         1.5017    2.2189   -2.3598 C.2       1 <1>        -0.0025 
     15 C15         1.6206    2.6871   -4.8651 C.3       1 <1>        -0.0323 
     16 O16        -0.6692    4.3722   -3.7524 O.2       1 <1>        -0.3691 
     17 H1         -1.4077    2.5507    3.4946 H         1 <1>         0.0465 
     18 H2         -3.7894    2.7149    2.7904 H         1 <1>         0.0481 
     19 H3         -4.4179    2.2950    0.4524 H         1 <1>         0.0452 
     20 H4          1.2773    3.0843   -0.3818 H         1 <1>         0.1192 
     21 H5          2.3269    1.5099   -2.3092 H         1 <1>         0.0705 
     22 H6          1.6884    1.6224   -5.1338 H         1 <1>         0.0347 
     23 H7          2.6218    3.1391   -4.9227 H         1 <1>         0.0347 
     24 H8          0.9574    3.1937   -5.5822 H         1 <1>         0.0347 
     25 O25        -3.8619    2.0071   -1.8721 O.2       1 <1>        -0.1161 
     26 O26        -1.9487    1.1481   -2.2599 O.2       1 <1>        -0.1161 
@<TRIPOS>BOND
     1    7    1 1    
     2    2    3 ar   
     3    3    4 ar   
     4    4    5 ar   
     5    5    6 ar   
     6    6    7 ar   
     7    2    7 ar   
     8    5    8 1    
     9    6    9 1    
    10    9   10 1    
    11   10   11 1    
    12   11   12 1    
    13   12   13 1    
    14   13   14 2    
    15   10   14 1    
    16   13   15 1    
    17   12   16 2    
    18    2   17 1    
    19    3   18 1    
    20    4   19 1    
    21   10   20 1    
    22   14   21 1    
    23   15   22 1    
    24   15   23 1    
    25   15   24 1    
    26    8   25 2    
    27    8   26 2    
@<TRIPOS>SUBSTRUCTURE
     1 ****        2 TEMP              0 ****  ****    0 ROOT 
@<TRIPOS>NORMAL
@<TRIPOS>FF_PBC
FORCE_FIELD_SETUP_FEATURE Force Field Setup information
v1.0  0 0.000000 0.000000 0.000000 0.000000 0.000000 0.000000 NONE 0 0 0 0 1 0 0 0 0 0 0 0 0
