#	Name:			PISM00309
#	Creating user name:	baoopengkun
#	Creation time:		Sun Dec 16 04:05:42 2018

#	Modifying user name:	baoopengkun
#	Modification time:	Sun Dec 16 04:07:36 2018

@<TRIPOS>MOLECULE
PISM00309
   30    31     1     1     0
SMALL
GAST_HUCK


@<TRIPOS>ATOM
      1 Br1        -7.8070   13.9174   41.5412 Br        1 <1>        -0.0422 
      2 C2         -6.7902   15.2989   42.3352 C.2       1 <1>         0.0651 
      3 C3         -5.8059   15.9263   41.6877 C.2       1 <1>        -0.0662 
      4 C4         -5.1754   16.9554   42.5249 C.2       1 <1>        -0.0459 
      5 C5         -5.7331   17.0239   43.7362 C.2       1 <1>         0.1645 
      6 S6         -7.0622   15.8698   43.9989 S.3       1 <1>        -0.0106 
      7 S7         -5.2090   18.1712   44.9948 S.o2      1 <1>         0.0809 
      8 O8         -3.9440   18.7656   44.6106 O.2       1 <1>        -0.1490 
      9 O9         -5.3600   17.5419   46.2917 O.2       1 <1>        -0.1490 
     10 N10        -6.3784   19.2984   44.8415 N.am      1 <1>        -0.2361 
     11 C11        -6.5716   20.0572   43.6129 C.3       1 <1>         0.0572 
     12 C12        -6.6255   21.5530   43.9450 C.ar      1 <1>        -0.0313 
     13 C13        -7.6794   22.3619   43.5059 C.ar      1 <1>        -0.0653 
     14 C14        -7.7059   23.7210   43.8324 C.ar      1 <1>        -0.0670 
     15 C15        -6.6827   24.2867   44.6005 C.ar      1 <1>        -0.0528 
     16 C16        -5.6247   23.4787   45.0315 C.ar      1 <1>        -0.0670 
     17 C17        -5.5976   22.1197   44.7055 C.ar      1 <1>        -0.0653 
     18 C18        -6.7361   25.7773   44.9566 C.3       1 <1>        -0.0343 
     19 H1         -5.5036   15.7057   40.6644 H         1 <1>         0.0463 
     20 H2         -4.3517   17.5862   42.1932 H         1 <1>         0.0439 
     21 H3         -6.9985   19.4746   45.6087 H         1 <1>         0.1698 
     22 H4         -7.4940   19.7150   43.1181 H         1 <1>         0.0625 
     23 H5         -5.7319   19.9033   42.9177 H         1 <1>         0.0625 
     24 H6         -8.4827   21.9417   42.9094 H         1 <1>         0.0540 
     25 H7         -8.5275   24.3397   43.4853 H         1 <1>         0.0540 
     26 H8         -4.8173   23.9009   45.6211 H         1 <1>         0.0540 
     27 H9         -4.7724   21.5015   45.0456 H         1 <1>         0.0540 
     28 H10        -6.4911   26.3665   44.0604 H         1 <1>         0.0378 
     29 H11        -6.0233   26.0311   45.7556 H         1 <1>         0.0378 
     30 H12        -7.7481   26.0440   45.2970 H         1 <1>         0.0378 
@<TRIPOS>BOND
     1    2    1 1    
     2    2    3 2    
     3    3    4 1    
     4    4    5 2    
     5    5    6 1    
     6    2    6 1    
     7    5    7 1    
     8    7    8 2    
     9    7    9 2    
    10    7   10 1    
    11   10   11 1    
    12   11   12 1    
    13   12   13 ar   
    14   13   14 ar   
    15   14   15 ar   
    16   15   16 ar   
    17   16   17 ar   
    18   12   17 ar   
    19   15   18 1    
    20    3   19 1    
    21    4   20 1    
    22   10   21 1    
    23   11   22 1    
    24   11   23 1    
    25   13   24 1    
    26   14   25 1    
    27   16   26 1    
    28   17   27 1    
    29   18   28 1    
    30   18   29 1    
    31   18   30 1    
@<TRIPOS>SUBSTRUCTURE
     1 ****        2 TEMP              0 ****  ****    0 ROOT 
@<TRIPOS>NORMAL
@<TRIPOS>FF_PBC
FORCE_FIELD_SETUP_FEATURE Force Field Setup information
v1.0  0 0.000000 0.000000 0.000000 0.000000 0.000000 0.000000 NONE 0 0 0 0 1 0 0 0 0 0 0 0 0
