#	Name:			PISM00134
#	Creating user name:	malab
#	Creation time:		Thu Apr 04 11:00:27 2019

#	Modifying user name:	malab
#	Modification time:	Thu Apr 04 11:08:03 2019

@<TRIPOS>MOLECULE
PISM00134
   49    52     1     1     0
SMALL
GAST_HUCK


@<TRIPOS>ATOM
      1 C1          0.1788    1.4881   -6.1099 C.ar      1 <1>        -0.0575 
      2 C2          0.9136    1.6726   -7.2847 C.ar      1 <1>        -0.0567 
      3 C3          0.3345    1.3759   -8.5218 C.ar      1 <1>        -0.0414 
      4 C4         -0.9682    0.8701   -8.5755 C.ar      1 <1>         0.0643 
      5 C5         -1.6752    0.6126   -7.4008 C.ar      1 <1>         0.0171 
      6 C6         -1.1241    0.9843   -6.1686 C.ar      1 <1>        -0.0479 
      7 C7         -1.6686    0.5931   -9.8855 C.2       1 <1>         0.2403 
      8 O8         -1.0933    0.8573  -10.9299 O.2       1 <1>        -0.3805 
      9 N9         -2.8729    0.0844   -9.8651 N.pl3     1 <1>        -0.1630 
     10 C10        -3.5602   -0.1749  -11.1258 C.3       1 <1>         0.0567 
     11 N11        -3.5163   -0.2336   -8.7134 N.2       1 <1>        -0.1772 
     12 C12        -3.0271   -0.0506   -7.5514 C.2       1 <1>         0.0803 
     13 C13        -3.8306   -0.5130   -6.3560 C.ar      1 <1>        -0.0109 
     14 C14        -3.2279   -1.2375   -5.3219 C.ar      1 <1>        -0.0605 
     15 C15        -3.9599   -1.5681   -4.1782 C.ar      1 <1>        -0.0310 
     16 C16        -5.3059   -1.2066   -4.0828 C.ar      1 <1>         0.0961 
     17 C17        -5.9346   -0.5665   -5.1535 C.ar      1 <1>        -0.0310 
     18 C18        -5.1967   -0.2204   -6.2894 C.ar      1 <1>        -0.0605 
     19 O19        -6.0184   -1.4804   -2.9160 O.3       1 <1>        -0.2964 
     20 C20        -6.0184   -0.3870   -1.9756 C.3       1 <1>         0.1598 
     21 C21        -6.7734   -0.7111   -0.7043 C.2       1 <1>         0.2112 
     22 O22        -7.4586   -1.7207   -0.7080 O.2       1 <1>        -0.3937 
     23 N23        -6.6979    0.0910    0.3972 N.am      1 <1>        -0.2614 
     24 C24        -5.8491    1.2862    0.3926 C.3       1 <1>         0.0511 
     25 C25        -6.1388    2.2234    1.5387 C.2       1 <1>        -0.0765 
     26 C26        -7.1799    2.0640    2.3631 C.2       1 <1>        -0.0949 
     27 C27        -8.1349    0.9127    2.2049 C.3       1 <1>        -0.0157 
     28 C28        -7.3970   -0.3130    1.6181 C.3       1 <1>         0.0422 
     29 H1          0.6208    1.7389   -5.1499 H         1 <1>         0.0650 
     30 H2          1.9310    2.0489   -7.2368 H         1 <1>         0.0625 
     31 H3          0.8949    1.5402   -9.4365 H         1 <1>         0.0667 
     32 H4         -1.6973    0.8962   -5.2528 H         1 <1>         0.0631 
     33 H5         -3.7031    0.7683  -11.6756 H         1 <1>         0.0557 
     34 H6         -4.5470   -0.6261  -10.9407 H         1 <1>         0.0557 
     35 H7         -2.9687   -0.8679  -11.7441 H         1 <1>         0.0557 
     36 H8         -2.1919   -1.5504   -5.4069 H         1 <1>         0.0598 
     37 H9         -3.4886   -2.1047   -3.3611 H         1 <1>         0.0548 
     38 H10        -6.9938   -0.3378   -5.0965 H         1 <1>         0.0548 
     39 H11        -5.6850    0.2816   -7.1191 H         1 <1>         0.0598 
     40 H12        -6.4962    0.4873   -2.4426 H         1 <1>         0.0861 
     41 H13        -4.9735   -0.1547   -1.7234 H         1 <1>         0.0861 
     42 H14        -5.9920    1.8847   -0.5197 H         1 <1>         0.0647 
     43 H15        -4.7935    0.9810    0.4693 H         1 <1>         0.0647 
     44 H16        -5.4712    3.0737    1.6907 H         1 <1>         0.0470 
     45 H17        -7.3500    2.7862    3.1639 H         1 <1>         0.0451 
     46 H18        -8.9476    1.2234    1.5295 H         1 <1>         0.0408 
     47 H19        -8.5704    0.6463    3.1821 H         1 <1>         0.0408 
     48 H20        -8.1366   -1.1171    1.4696 H         1 <1>         0.0544 
     49 H21        -6.6479   -0.6735    2.3415 H         1 <1>         0.0544 
@<TRIPOS>BOND
     1    2    1 ar   
     2    2    3 ar   
     3    3    4 ar   
     4    4    5 ar   
     5    6    5 ar   
     6    1    6 ar   
     7    4    7 1    
     8    7    8 2    
     9    7    9 1    
    10    9   10 1    
    11    9   11 1    
    12   12   11 2    
    13    5   12 1    
    14   12   13 1    
    15   13   14 ar   
    16   14   15 ar   
    17   15   16 ar   
    18   17   16 ar   
    19   18   17 ar   
    20   13   18 ar   
    21   16   19 1    
    22   19   20 1    
    23   20   21 1    
    24   21   22 2    
    25   21   23 am   
    26   23   24 1    
    27   24   25 1    
    28   25   26 2    
    29   27   26 1    
    30   28   27 1    
    31   23   28 1    
    32    1   29 1    
    33    2   30 1    
    34    3   31 1    
    35    6   32 1    
    36   10   33 1    
    37   10   34 1    
    38   10   35 1    
    39   14   36 1    
    40   15   37 1    
    41   17   38 1    
    42   18   39 1    
    43   20   40 1    
    44   20   41 1    
    45   24   42 1    
    46   24   43 1    
    47   25   44 1    
    48   26   45 1    
    49   27   46 1    
    50   27   47 1    
    51   28   48 1    
    52   28   49 1    
@<TRIPOS>SUBSTRUCTURE
     1 ****        2 TEMP              0 ****  ****    0 ROOT 
@<TRIPOS>NORMAL
@<TRIPOS>FF_PBC
FORCE_FIELD_SETUP_FEATURE Force Field Setup information
v1.0  0 0.000000 0.000000 0.000000 0.000000 0.000000 0.000000 NONE 0 0 0 0 1 0 0 0 0 0 0 0 0
