#	Name:			PISM00677
#	Creating user name:	baoopengkun
#	Creation time:		Sat Jan 12 23:33:32 2019

#	Modifying user name:	baoopengkun
#	Modification time:	Sat Jan 12 23:36:02 2019

@<TRIPOS>MOLECULE
PISM00677
   34    36     1     1     0
SMALL
GAST_HUCK


@<TRIPOS>ATOM
      1 Cl1        -1.1839  -10.0971    1.8988 Cl        1 <1>        -0.0527 
      2 C2         -1.0462  -11.8399    2.0302 C.ar      1 <1>         0.0506 
      3 C3         -1.3088  -12.4005    3.2820 C.ar      1 <1>        -0.0291 
      4 C4         -1.3947  -13.7849    3.4427 C.ar      1 <1>        -0.0431 
      5 C5         -1.1808  -14.6157    2.3423 C.ar      1 <1>        -0.0433 
      6 C6         -0.8354  -14.0567    1.1103 C.ar      1 <1>        -0.0536 
      7 C7         -0.7131  -12.6687    0.9458 C.ar      1 <1>        -0.0423 
      8 C8         -0.2472  -12.1785   -0.4392 C.3       1 <1>         0.0746 
      9 O9         -1.4302  -12.4862   -1.1987 O.3       1 <1>        -0.4521 
     10 C10         0.0378  -10.6586   -0.5738 C.ar      1 <1>        -0.0583 
     11 C11        -0.7896   -9.8281   -1.3460 C.ar      1 <1>        -0.0541 
     12 C12        -0.4125   -8.5231   -1.6675 C.ar      1 <1>        -0.0073 
     13 C13         0.7607   -7.9885   -1.1400 C.ar      1 <1>         0.1560 
     14 C14         1.5120   -8.7479   -0.2412 C.ar      1 <1>        -0.0073 
     15 C15         1.1107  -10.0442    0.0888 C.ar      1 <1>        -0.0541 
     16 F16         1.1498   -6.7662   -1.4790 F         1 <1>        -0.1644 
     17 C17         0.9082  -13.0959   -0.9278 C.ar      1 <1>        -0.0069 
     18 C18         0.7509  -13.9980   -1.9948 C.ar      1 <1>         0.0352 
     19 N19         1.8025  -14.6748   -2.4948 N.ar      1 <1>        -0.2436 
     20 C20         3.0273  -14.5525   -1.9518 C.ar      1 <1>         0.1068 
     21 N21         3.2013  -13.7729   -0.8694 N.ar      1 <1>        -0.2436 
     22 C22         2.1630  -13.1205   -0.3074 C.ar      1 <1>         0.0352 
     23 H1         -1.4553  -11.7507    4.1374 H         1 <1>         0.0675 
     24 H2         -1.6303  -14.2132    4.4108 H         1 <1>         0.0772 
     25 H3         -1.2854  -15.6944    2.4389 H         1 <1>         0.0671 
     26 H4         -0.6730  -14.7266    0.2686 H         1 <1>         0.0761 
     27 H5         -1.3434  -12.3007   -2.1282 H         1 <1>         0.1842 
     28 H6         -1.7551  -10.1587   -1.7096 H         1 <1>         0.0757 
     29 H7         -1.0329   -7.9216   -2.3242 H         1 <1>         0.0665 
     30 H8          2.4034   -8.3173    0.2029 H         1 <1>         0.0665 
     31 H9          1.6324  -10.5530    0.8881 H         1 <1>         0.0757 
     32 H10        -0.2108  -14.2014   -2.4435 H         1 <1>         0.1074 
     33 H11         3.8644  -15.0847   -2.3883 H         1 <1>         0.1261 
     34 H12         2.3306  -12.6377    0.6448 H         1 <1>         0.1074 
@<TRIPOS>BOND
     1    2    1 1    
     2    2    3 ar   
     3    3    4 ar   
     4    4    5 ar   
     5    5    6 ar   
     6    6    7 ar   
     7    2    7 ar   
     8    7    8 1    
     9    8    9 1    
    10    8   10 1    
    11   10   11 ar   
    12   11   12 ar   
    13   12   13 ar   
    14   13   14 ar   
    15   14   15 ar   
    16   10   15 ar   
    17   13   16 1    
    18    8   17 1    
    19   17   18 ar   
    20   18   19 ar   
    21   19   20 ar   
    22   20   21 ar   
    23   21   22 ar   
    24   17   22 ar   
    25    3   23 1    
    26    4   24 1    
    27    5   25 1    
    28    6   26 1    
    29    9   27 1    
    30   11   28 1    
    31   12   29 1    
    32   14   30 1    
    33   15   31 1    
    34   18   32 1    
    35   20   33 1    
    36   22   34 1    
@<TRIPOS>SUBSTRUCTURE
     1 ****        2 TEMP              0 ****  ****    0 ROOT 
@<TRIPOS>NORMAL
@<TRIPOS>FF_PBC
FORCE_FIELD_SETUP_FEATURE Force Field Setup information
v1.0  0 0.000000 0.000000 0.000000 0.000000 0.000000 0.000000 NONE 0 0 0 0 1 0 0 0 0 0 0 0 0
