#	Name:			PISM00547
#	Creating user name:	baoopengkun
#	Creation time:		Sat Dec 15 14:46:24 2018

#	Modifying user name:	baoopengkun
#	Modification time:	Sat Dec 15 14:48:29 2018

@<TRIPOS>MOLECULE
PISM00547
   43    44     1     1     0
SMALL
GAST_HUCK


@<TRIPOS>ATOM
      1 C1         -5.4736    2.0527    3.5214 C.3       1 <1>         0.0303 
      2 C2         -4.2282    2.7159    2.9757 C.2       1 <1>         0.1132 
      3 O3         -4.1117    3.9301    2.9813 O.2       1 <1>        -0.3909 
      4 C4         -3.1374    1.8220    2.4413 C.3       1 <1>         0.0589 
      5 C5         -3.6598    0.8307    1.3524 C.3       1 <1>        -0.0291 
      6 C6         -5.2064    0.6564    1.4009 C.3       1 <1>        -0.0391 
      7 C7         -5.6871    0.6508    2.8758 C.3       1 <1>        -0.0318 
      8 C8         -6.7029    2.9817    3.3078 C.3       1 <1>        -0.0464 
      9 C9         -5.6407   -0.6379    0.6596 C.3       1 <1>        -0.0621 
     10 C10        -1.8446    2.5848    2.0105 C.3       1 <1>         0.0741 
     11 C11        -2.0462    3.6865    0.9223 C.3       1 <1>        -0.0174 
     12 C12        -0.7313    4.0569    0.1710 C.3       1 <1>        -0.0039 
     13 C13         0.3865    4.5617    1.1219 C.3       1 <1>         0.0475 
     14 C14         1.5902    5.0074    0.3324 C.2       1 <1>         0.2049 
     15 N15         1.4384    5.4597   -0.9274 N.am      1 <1>        -0.1997 
     16 C16         0.2656    5.5520   -1.5818 C.2       1 <1>         0.2049 
     17 C17        -1.0065    5.1701   -0.8747 C.3       1 <1>         0.0475 
     18 O18         0.2100    5.9460   -2.7342 O.2       1 <1>        -0.3862 
     19 O19         2.6921    4.9512    0.8514 O.2       1 <1>        -0.3862 
     20 O20        -1.2336    3.1632    3.1777 O.3       1 <1>        -0.3891 
     21 H21        -2.8487    1.2261    3.3247 H         1 <1>         0.0555 
     22 H1         -5.3425    1.9323    4.6104 H         1 <1>         0.0527 
     23 H2         -3.1692   -0.1444    1.5118 H         1 <1>         0.0296 
     24 H3         -3.3918    1.1474    0.3339 H         1 <1>         0.0296 
     25 H4         -5.6792    1.5102    0.8847 H         1 <1>         0.0301 
     26 H5         -5.1034   -0.1109    3.4191 H         1 <1>         0.0295 
     27 H6         -6.7477    0.3600    2.9424 H         1 <1>         0.0295 
     28 H7         -6.5496    3.9463    3.8171 H         1 <1>         0.0257 
     29 H8         -7.6143    2.5226    3.7213 H         1 <1>         0.0257 
     30 H9         -6.8634    3.1780    2.2374 H         1 <1>         0.0257 
     31 H10        -5.2366   -1.5288    1.1645 H         1 <1>         0.0233 
     32 H11        -5.2735   -0.6242   -0.3786 H         1 <1>         0.0233 
     33 H12        -6.7389   -0.7185    0.6378 H         1 <1>         0.0233 
     34 H13        -1.1415    1.8281    1.6239 H         1 <1>         0.0622 
     35 H14        -2.4446    4.6038    1.3802 H         1 <1>         0.0297 
     36 H15        -2.7800    3.3566    0.1734 H         1 <1>         0.0297 
     37 H16        -0.3590    3.1655   -0.3646 H         1 <1>         0.0351 
     38 H17         0.7118    3.7567    1.7982 H         1 <1>         0.0512 
     39 H18         0.0320    5.4092    1.7279 H         1 <1>         0.0512 
     40 H19         2.2630    5.7384   -1.4194 H         1 <1>         0.2256 
     41 H20        -1.7420    4.8218   -1.6174 H         1 <1>         0.0512 
     42 H22        -1.4039    6.0747   -0.3894 H         1 <1>         0.0512 
     43 H23        -1.8009    3.8026    3.6014 H         1 <1>         0.2100 
@<TRIPOS>BOND
     1    2    1 1    
     2    2    3 2    
     3    2    4 1    
     4    4    5 1    
     5    5    6 1    
     6    6    7 1    
     7    1    7 1    
     8    1    8 1    
     9    6    9 1    
    10    4   10 1    
    11   10   11 1    
    12   11   12 1    
    13   12   13 1    
    14   13   14 1    
    15   14   15 am   
    16   15   16 am   
    17   16   17 1    
    18   12   17 1    
    19   16   18 2    
    20   14   19 2    
    21   10   20 1    
    22    4   21 1    
    23    1   22 1    
    24    5   23 1    
    25    5   24 1    
    26    6   25 1    
    27    7   26 1    
    28    7   27 1    
    29    8   28 1    
    30    8   29 1    
    31    8   30 1    
    32    9   31 1    
    33    9   32 1    
    34    9   33 1    
    35   10   34 1    
    36   11   35 1    
    37   11   36 1    
    38   12   37 1    
    39   13   38 1    
    40   13   39 1    
    41   15   40 1    
    42   17   41 1    
    43   17   42 1    
    44   20   43 1    
@<TRIPOS>SUBSTRUCTURE
     1 ****        2 TEMP              0 ****  ****    0 ROOT 
@<TRIPOS>NORMAL
@<TRIPOS>FF_PBC
FORCE_FIELD_SETUP_FEATURE Force Field Setup information
v1.0  0 0.000000 0.000000 0.000000 0.000000 0.000000 0.000000 NONE 0 0 0 0 1 0 0 0 0 0 0 0 0
