#	Name:			PISM00692
#	Creating user name:	baoopengkun
#	Creation time:		Sat Dec 08 17:19:43 2018

#	Modifying user name:	baoopengkun
#	Modification time:	Sat Dec 08 17:20:44 2018

@<TRIPOS>MOLECULE
PISM00692
   36    38     3     2     0
SMALL
GAST_HUCK


@<TRIPOS>ATOM
      1 C1         25.9283   32.8741  -10.5562 C.3       1 PHENYL      0.0628 
      2 C          25.3381   32.6460  -11.9634 C.ar      1 PHENYL     -0.0611 
      3 C          26.1650   32.2577  -13.0248 C.ar      1 PHENYL     -0.0556 
      4 C          25.6541   32.1432  -14.3209 C.ar      1 PHENYL     -0.0444 
      5 C          24.2968   32.3727  -14.5598 C.ar      1 PHENYL     -0.0446 
      6 C          23.4506   32.6905  -13.4943 C.ar      1 PHENYL     -0.0444 
      7 C          23.9670   32.8035  -12.2002 C.ar      1 PHENYL     -0.0556 
      8 C          27.3714   33.4137  -10.5385 C.ar      2 PHENYL     -0.0611 
      9 C          28.2558   33.0014   -9.5343 C.ar      2 PHENYL     -0.0556 
     10 C          29.5758   33.4611   -9.5125 C.ar      2 PHENYL     -0.0444 
     11 C          30.0211   34.3547  -10.4898 C.ar      2 PHENYL     -0.0446 
     12 C          29.1405   34.7878  -11.4842 C.ar      2 PHENYL     -0.0444 
     13 C          27.8223   34.3230  -11.5039 C.ar      2 PHENYL     -0.0556 
     14 C          25.1444   33.8929   -9.7102 C.ar      3 PHENYL     -0.0264 
     15 C          24.8795   33.6346   -8.3589 C.ar      3 PHENYL     -0.0562 
     16 C          24.1642   34.5525   -7.5845 C.ar      3 PHENYL     -0.0118 
     17 C          23.7138   35.7447   -8.1542 C.ar      3 PHENYL      0.1536 
     18 C          23.9811   36.0150   -9.4971 C.ar      3 PHENYL      0.0264 
     19 C          24.6921   35.0946  -10.2703 C.ar      3 PHENYL      0.1443 
     20 O20        25.8590   31.5820   -9.9273 O.3       1 PHENYL     -0.4553 
     21 F21        23.0325   36.6202   -7.4200 F         3 PHENYL     -0.1661 
     22 H1         27.2129   32.0374  -12.8485 H         1 PHENYL      0.0753 
     23 H2         26.3120   31.8746  -15.1420 H         1 PHENYL      0.0667 
     24 H3         23.9007   32.3015  -15.5682 H         1 PHENYL      0.0765 
     25 H4         22.3910   32.8485  -13.6716 H         1 PHENYL      0.0667 
     26 H5         23.2900   33.0104  -11.3784 H         1 PHENYL      0.0753 
     27 H6         27.9209   32.3206   -8.7585 H         2 PHENYL      0.0753 
     28 H7         30.2550   33.1244   -8.7351 H         2 PHENYL      0.0667 
     29 H29        31.0466   34.7114  -10.4761 H         2 PHENYL      0.0765 
     30 H9         29.4807   35.4864  -12.2428 H         2 PHENYL      0.0667 
     31 H10        27.1541   34.6784  -12.2802 H         2 PHENYL      0.0753 
     32 H11        25.2300   32.7178   -7.8960 H         3 PHENYL      0.0739 
     33 H12        23.9567   34.3446   -6.5399 H         3 PHENYL      0.0633 
     34 H13        23.6354   36.9417   -9.9410 H         3 PHENYL      0.0646 
     35 F35        24.9275   35.3834  -11.5465 F         3 PHENYL     -0.1664 
     36 H15        26.3700   30.9247  -10.3886 H         1 PHENYL      0.1835 
@<TRIPOS>BOND
     1    2    3 ar   
     2    2    7 ar   
     3    7    6 ar   
     4    6    5 ar   
     5    5    4 ar   
     6    4    3 ar   
     7    2    1 1    
     8    8    9 ar   
     9    8   13 ar   
    10   13   12 ar   
    11   12   11 ar   
    12   11   10 ar   
    13   10    9 ar   
    14    1    8 1    
    15   14   15 ar   
    16   14   19 ar   
    17   19   18 ar   
    18   18   17 ar   
    19   17   16 ar   
    20   16   15 ar   
    21    1   14 1    
    22    1   20 1    
    23   17   21 1    
    24    3   22 1    
    25    4   23 1    
    26    5   24 1    
    27    6   25 1    
    28    7   26 1    
    29    9   27 1    
    30   10   28 1    
    31   11   29 1    
    32   12   30 1    
    33   13   31 1    
    34   15   32 1    
    35   16   33 1    
    36   18   34 1    
    37   19   35 1    
    38   20   36 1    
@<TRIPOS>SUBSTRUCTURE
     1 PHENYL      2 PERM              0 ****  ****    2 ROOT 
     2 PHENYL      8 PERM              0 ****  ****    1  
     3 PHENYL     14 PERM              0 ****  ****    1  
@<TRIPOS>NORMAL
@<TRIPOS>FF_PBC
FORCE_FIELD_SETUP_FEATURE Force Field Setup information
v1.0  0 0.000000 0.000000 0.000000 0.000000 0.000000 0.000000 NONE 0 0 0 0 1 0 0 0 0 0 0 0 0
@<TRIPOS>RENDERING_ATTRS
ANTIALIASED_LINES 
*
