#	Name:			PISM00642
#	Creating user name:	baoopengkun
#	Creation time:		Wed Jan 09 15:49:15 2019

#	Modifying user name:	baoopengkun
#	Modification time:	Wed Jan 09 15:51:05 2019

@<TRIPOS>MOLECULE
PISM00642
   26    26     1     1     0
SMALL
GAST_HUCK


@<TRIPOS>ATOM
      1 Br1        -1.1716   -2.1076   -0.3782 Br        1 <1>        -0.0513 
      2 C2         -0.9171   -0.5080    0.5210 C.ar      1 <1>         0.0273 
      3 C3          0.2226   -0.3108    1.3045 C.ar      1 <1>        -0.0434 
      4 C4          0.3881    0.9040    1.9748 C.ar      1 <1>        -0.0082 
      5 C5         -0.5878    1.8974    1.8485 C.ar      1 <1>         0.1381 
      6 N6         -1.6742    1.6828    1.0777 N.ar      1 <1>        -0.2771 
      7 C7         -1.8621    0.5172    0.4246 C.ar      1 <1>         0.0074 
      8 N8         -0.4372    3.0832    2.4831 N.pl3     1 <1>        -0.2560 
      9 C9         -1.3414    3.5779    3.2964 C.2       1 <1>         0.0309 
     10 C10        -2.4770    2.9407    3.6242 C.2       1 <1>        -0.1161 
     11 C11        -1.0488    4.9411    3.8971 C.3       1 <1>         0.0235 
     12 C12        -0.0512    4.7877    5.0753 C.3       1 <1>         0.0623 
     13 C13         0.2925    6.1210    5.6998 C.2       1 <1>         0.2336 
     14 O14        -0.1671    7.1598    5.2589 O.2       1 <1>        -0.3704 
     15 O15         1.1167    6.1600    6.7518 O.3       1 <1>        -0.2926 
     16 H1          0.9699   -1.0928    1.3917 H         1 <1>         0.0726 
     17 H2          1.2645    1.0759    2.5904 H         1 <1>         0.0633 
     18 H3         -2.7544    0.3830   -0.1769 H         1 <1>         0.0814 
     19 H4          0.4303    3.6082    2.2984 H         1 <1>         0.2187 
     20 H5         -3.1975    3.3909    4.3066 H         1 <1>        -0.0043 
     21 H6         -2.7539    1.9547    3.2567 H         1 <1>        -0.0043 
     22 H7         -1.9671    5.4187    4.2766 H         1 <1>         0.0507 
     23 H8         -0.6368    5.6119    3.1259 H         1 <1>         0.0507 
     24 H9          0.8803    4.3213    4.7193 H         1 <1>         0.0546 
     25 H10        -0.5004    4.1381    5.8433 H         1 <1>         0.0546 
     26 H11         1.4346    5.3130    7.0394 H         1 <1>         0.2540 
@<TRIPOS>BOND
     1    2    1 1    
     2    2    3 ar   
     3    3    4 ar   
     4    4    5 ar   
     5    5    6 ar   
     6    6    7 ar   
     7    2    7 ar   
     8    5    8 1    
     9    8    9 1    
    10    9   10 2    
    11    9   11 1    
    12   11   12 1    
    13   12   13 1    
    14   13   14 2    
    15   13   15 1    
    16    3   16 1    
    17    4   17 1    
    18    7   18 1    
    19    8   19 1    
    20   10   20 1    
    21   10   21 1    
    22   11   22 1    
    23   11   23 1    
    24   12   24 1    
    25   12   25 1    
    26   15   26 1    
@<TRIPOS>SUBSTRUCTURE
     1 ****        2 TEMP              0 ****  ****    0 ROOT 
@<TRIPOS>NORMAL
@<TRIPOS>FF_PBC
FORCE_FIELD_SETUP_FEATURE Force Field Setup information
v1.0  0 0.000000 0.000000 0.000000 0.000000 0.000000 0.000000 NONE 0 0 0 0 1 0 0 0 0 0 0 0 0
