#	Name:			PISM00950
#	Creating user name:	baoopengkun
#	Creation time:		Thu Dec 13 10:03:18 2018

#	Modifying user name:	baoopengkun
#	Modification time:	Thu Dec 13 10:08:59 2018

@<TRIPOS>MOLECULE
PISM00950
   50    53     1     1     0
SMALL
GAST_HUCK


@<TRIPOS>ATOM
      1 C1         -9.5595    9.7750   -0.4457 C.ar      1 <1>         0.0196 
      2 C2        -10.5369   10.2330    0.4432 C.ar      1 <1>         0.1540 
      3 C3        -11.7267    9.5170    0.5889 C.ar      1 <1>         0.0056 
      4 C4        -11.9432    8.3572   -0.1600 C.ar      1 <1>        -0.0413 
      5 C5        -10.9648    7.8929   -1.0469 C.ar      1 <1>         0.0046 
      6 C6         -9.7792    8.6216   -1.2036 C.ar      1 <1>         0.0637 
      7 O7        -10.3365   11.3963    1.1877 O.3       1 <1>        -0.2325 
      8 Cl8        -8.5488    8.1167   -2.3459 Cl        1 <1>        -0.0455 
      9 C9        -11.2046    6.5928   -1.8310 C.3       1 <1>         0.1778 
     10 C10       -11.7400    6.9073   -3.2486 C.3       1 <1>         0.0996 
     11 N11       -12.0104    5.6979   -4.0126 N.pl3     1 <1>        -0.1835 
     12 N12       -13.2138    5.3013   -4.5146 N.2       1 <1>        -0.1910 
     13 C13       -13.1532    4.1865   -5.1433 C.2       1 <1>         0.0618 
     14 N14       -11.7565    3.8761   -5.0100 N.2       1 <1>        -0.2870 
     15 C15       -11.1680    4.7730   -4.3584 C.2       1 <1>         0.1268 
     16 O16       -12.1070    5.7309   -1.1267 O.3       1 <1>        -0.3895 
     17 C17       -11.3612    5.0216   -0.1269 C.3       1 <1>         0.0700 
     18 C18        -9.8844    5.2216   -0.5534 C.3       1 <1>         0.0616 
     19 O19       -10.0367    5.7640   -1.8665 O.3       1 <1>        -0.3922 
     20 C20       -11.8215    3.5391   -0.1261 C.3       1 <1>        -0.0259 
     21 C21       -11.8118    2.9124   -1.5486 C.3       1 <1>        -0.0535 
     22 C22       -12.2519    1.4261   -1.5124 C.3       1 <1>        -0.0652 
     23 C23        -9.8422   12.4935    0.4795 C.ar      1 <1>         0.1286 
     24 C24        -8.8117   13.2604    1.0298 C.ar      1 <1>        -0.0245 
     25 C25        -8.2908   14.3491    0.3241 C.ar      1 <1>        -0.0540 
     26 C26        -8.8034   14.6743   -0.9347 C.ar      1 <1>         0.0308 
     27 C27        -9.8437   13.9177   -1.4812 C.ar      1 <1>        -0.0540 
     28 C28       -10.3696   12.8342   -0.7712 C.ar      1 <1>        -0.0245 
     29 Cl29       -8.1433   16.0296   -1.8265 Cl        1 <1>        -0.0790 
     30 H1         -8.6242   10.3141   -0.5496 H         1 <1>         0.0663 
     31 H2        -12.4812    9.8684    1.2852 H         1 <1>         0.0661 
     32 H3        -12.8795    7.8188   -0.0484 H         1 <1>         0.0820 
     33 H4        -11.0092    7.5170   -3.7992 H         1 <1>         0.0569 
     34 H5        -12.6775    7.4750   -3.1535 H         1 <1>         0.0569 
     35 H6        -13.9443    3.6287   -5.6417 H         1 <1>         0.0863 
     36 H7        -10.1039    4.7581   -4.1272 H         1 <1>         0.1361 
     37 H8        -11.5349    5.4752    0.8641 H         1 <1>         0.0606 
     38 H9         -9.2775    4.3043   -0.5618 H         1 <1>         0.0572 
     39 H10        -9.3845    5.9680    0.0856 H         1 <1>         0.0572 
     40 H11       -12.8510    3.4980    0.2660 H         1 <1>         0.0290 
     41 H12       -11.1722    2.9598    0.5499 H         1 <1>         0.0290 
     42 H13       -10.8041    2.9742   -1.9891 H         1 <1>         0.0263 
     43 H14       -12.5055    3.4686   -2.2005 H         1 <1>         0.0263 
     44 H15       -12.2485    1.0063   -2.5310 H         1 <1>         0.0230 
     45 H16       -13.2691    1.3366   -1.1002 H         1 <1>         0.0230 
     46 H17       -11.5629    0.8368   -0.8876 H         1 <1>         0.0230 
     47 H18        -8.4170   13.0046    2.0077 H         1 <1>         0.0567 
     48 H19        -7.4888   14.9425    0.7514 H         1 <1>         0.0601 
     49 H20       -10.2425   14.1744   -2.4574 H         1 <1>         0.0601 
     50 H21       -11.1893   12.2617   -1.1933 H         1 <1>         0.0567 
@<TRIPOS>BOND
     1    2    1 ar   
     2    2    3 ar   
     3    3    4 ar   
     4    4    5 ar   
     5    5    6 ar   
     6    1    6 ar   
     7    2    7 1    
     8    6    8 1    
     9    5    9 1    
    10    9   10 1    
    11   10   11 1    
    12   11   12 1    
    13   12   13 2    
    14   13   14 1    
    15   14   15 2    
    16   11   15 1    
    17    9   16 1    
    18   16   17 1    
    19   17   18 1    
    20   18   19 1    
    21    9   19 1    
    22   17   20 1    
    23   20   21 1    
    24   21   22 1    
    25    7   23 1    
    26   23   24 ar   
    27   24   25 ar   
    28   25   26 ar   
    29   26   27 ar   
    30   27   28 ar   
    31   23   28 ar   
    32   26   29 1    
    33    1   30 1    
    34    3   31 1    
    35    4   32 1    
    36   10   33 1    
    37   10   34 1    
    38   13   35 1    
    39   15   36 1    
    40   17   37 1    
    41   18   38 1    
    42   18   39 1    
    43   20   40 1    
    44   20   41 1    
    45   21   42 1    
    46   21   43 1    
    47   22   44 1    
    48   22   45 1    
    49   22   46 1    
    50   24   47 1    
    51   25   48 1    
    52   27   49 1    
    53   28   50 1    
@<TRIPOS>SUBSTRUCTURE
     1 ****        2 TEMP              0 ****  ****    0 ROOT 
@<TRIPOS>NORMAL
@<TRIPOS>FF_PBC
FORCE_FIELD_SETUP_FEATURE Force Field Setup information
v1.0  0 0.000000 0.000000 0.000000 0.000000 0.000000 0.000000 NONE 0 0 0 0 1 0 0 0 0 0 0 0 0
