#	Name:			PISM00787.1
#	Creating user name:	baoopengkun
#	Creation time:		Sat Dec 15 01:09:24 2018

#	Modifying user name:	baoopengkun
#	Modification time:	Sat Dec 15 01:19:02 2018

@<TRIPOS>MOLECULE
PISM00787.1
   56    60     1     1     0
SMALL
GAST_HUCK


@<TRIPOS>ATOM
      1 C1         26.2240   12.9054  -26.4318 C.ar      1 <1>        -0.0395 
      2 C2         27.5111   12.8702  -25.8703 C.ar      1 <1>        -0.0682 
      3 C3         27.7350   12.3698  -24.5803 C.ar      1 <1>        -0.0412 
      4 C4         26.6254   11.9108  -23.8698 C.ar      1 <1>         0.0661 
      5 C5         25.3570   11.9527  -24.4327 C.ar      1 <1>        -0.0102 
      6 C6         25.1133   12.4432  -25.7135 C.ar      1 <1>        -0.0648 
      7 C7         24.5098   11.3716  -23.3331 C.2       1 <1>        -0.0184 
      8 C8         25.3350   11.0821  -22.3332 C.2       1 <1>         0.1038 
      9 N9         26.5726   11.3876  -22.6212 N.pl3     1 <1>        -0.2676 
     10 C10        27.7147   11.1943  -21.7365 C.3       1 <1>         0.0369 
     11 C11        24.5656   10.5105  -21.2322 C.2       1 <1>         0.1397 
     12 O12        24.9655   10.1283  -20.1444 O.2       1 <1>        -0.4040 
     13 C13        23.1739   10.4938  -21.7203 C.2       1 <1>         0.0278 
     14 C14        23.0543   11.0658  -23.1220 C.3       1 <1>        -0.0036 
     15 C15        22.1338   10.0313  -21.0202 C.2       1 <1>         0.0829 
     16 O16        20.9080   10.0710  -21.5629 O.3       1 <1>        -0.2667 
     17 C17        19.8723    9.5567  -20.7073 C.3       1 <1>         0.2400 
     18 C18        19.7344   10.3548  -19.4322 C.2       1 <1>        -0.0007 
     19 C19        19.8890    9.5617  -18.3734 C.2       1 <1>         0.0293 
     20 C20        20.1306    8.2468  -18.9589 C.2       1 <1>         0.2496 
     21 O21        20.1504    8.2061  -20.2861 O.3       1 <1>        -0.2302 
     22 C22        19.8203    9.9253  -16.9154 C.3       1 <1>        -0.0323 
     23 O23        20.3087    7.2502  -18.2807 O.2       1 <1>        -0.3691 
     24 C24        26.0338   13.4381  -27.8035 C.ar      1 <1>        -0.0373 
     25 C25        25.4367   14.0294  -32.8048 C.3       1 <1>         0.0153 
     26 C26        25.3846   16.3794  -31.8836 C.3       1 <1>         0.0153 
     27 H1         28.3537   13.2405  -26.4457 H         1 <1>         0.0548 
     28 H2         28.7309   12.3416  -24.1527 H         1 <1>         0.0548 
     29 H3         24.1108   12.4600  -26.1265 H         1 <1>         0.0554 
     30 H4         27.4137   10.7574  -20.7721 H         1 <1>         0.0555 
     31 H5         28.1981   12.1640  -21.5440 H         1 <1>         0.0555 
     32 H6         28.4386   10.5178  -22.2152 H         1 <1>         0.0555 
     33 H7         22.4400   11.9781  -23.1503 H         1 <1>         0.0475 
     34 H8         22.6874   10.3231  -23.8460 H         1 <1>         0.0475 
     35 H9         22.3498    9.6383  -20.0238 H         1 <1>         0.1132 
     36 H10        18.9182    9.5748  -21.2582 H         1 <1>         0.1214 
     37 H11        19.5359   11.4252  -19.3926 H         1 <1>         0.0706 
     38 H12        19.1108   10.7512  -16.7569 H         1 <1>         0.0347 
     39 C39        25.1403   14.4880  -28.0337 C.ar      1 <1>        -0.0669 
     40 C40        24.9534   14.9805  -29.3287 C.ar      1 <1>        -0.0438 
     41 C41        25.6758   14.4493  -30.4039 C.ar      1 <1>         0.0403 
     42 C42        26.5783   13.4062  -30.1645 C.ar      1 <1>        -0.0438 
     43 C43        26.7468   12.8934  -28.8750 C.ar      1 <1>        -0.0669 
     44 N44        25.5038   14.9382  -31.6600 N.pl3     1 <1>        -0.3146 
     45 H13        20.8177   10.2349  -16.5700 H         1 <1>         0.0347 
     46 H14        19.4914    9.0557  -16.3268 H         1 <1>         0.0347 
     47 H15        25.0817   13.0298  -32.5080 H         1 <1>         0.0478 
     48 H16        26.4351   13.9371  -33.2588 H         1 <1>         0.0478 
     49 H17        24.7401   14.4199  -33.5627 H         1 <1>         0.0478 
     50 H18        25.8909   16.9549  -31.0926 H         1 <1>         0.0478 
     51 H19        24.3208   16.6600  -31.9089 H         1 <1>         0.0478 
     52 H20        25.8446   16.6563  -32.8448 H         1 <1>         0.0478 
     53 H21        24.5897   14.9228  -27.2054 H         1 <1>         0.0582 
     54 H22        24.2357   15.7770  -29.4919 H         1 <1>         0.0518 
     55 H23        27.1613   12.9895  -30.9784 H         1 <1>         0.0518 
     56 H24        27.4336   12.0698  -28.7066 H         1 <1>         0.0582 
@<TRIPOS>BOND
     1    2    1 ar   
     2    2    3 ar   
     3    3    4 ar   
     4    4    5 ar   
     5    5    6 ar   
     6    1    6 ar   
     7    5    7 1    
     8    7    8 2    
     9    8    9 1    
    10    4    9 1    
    11    9   10 1    
    12    8   11 1    
    13   11   12 2    
    14   11   13 1    
    15   13   14 1    
    16    7   14 1    
    17   13   15 2    
    18   15   16 1    
    19   16   17 1    
    20   17   18 1    
    21   18   19 2    
    22   19   20 1    
    23   20   21 1    
    24   17   21 1    
    25   19   22 1    
    26   20   23 2    
    27    1   24 1    
    28   44   25 1    
    29   44   26 1    
    30    2   27 1    
    31    3   28 1    
    32    6   29 1    
    33   10   30 1    
    34   10   31 1    
    35   10   32 1    
    36   14   33 1    
    37   14   34 1    
    38   15   35 1    
    39   17   36 1    
    40   18   37 1    
    41   22   38 1    
    42   24   39 ar   
    43   39   40 ar   
    44   40   41 ar   
    45   41   42 ar   
    46   42   43 ar   
    47   24   43 ar   
    48   41   44 1    
    49   22   45 1    
    50   22   46 1    
    51   25   47 1    
    52   25   48 1    
    53   25   49 1    
    54   26   50 1    
    55   26   51 1    
    56   26   52 1    
    57   39   53 1    
    58   40   54 1    
    59   42   55 1    
    60   43   56 1    
@<TRIPOS>SUBSTRUCTURE
     1 ****        2 TEMP              0 ****  ****    0 ROOT 
@<TRIPOS>NORMAL
@<TRIPOS>FF_PBC
FORCE_FIELD_SETUP_FEATURE Force Field Setup information
v1.0  0 0.000000 0.000000 0.000000 0.000000 0.000000 0.000000 NONE 0 0 0 0 1 0 0 0 0 0 0 0 0
