#	Name:			PISM00756
#	Creating user name:	baoopengkun
#	Creation time:		Sun Dec 02 11:30:57 2018

#	Modifying user name:	baoopengkun
#	Modification time:	Sun Dec 02 11:33:26 2018

@<TRIPOS>MOLECULE
PISM00756
   31    33     1     2     0
SMALL
GAST_HUCK


@<TRIPOS>ATOM
      1 C1          2.4455    9.2926   -0.2879 C.ar      1 <1>        -0.0518 
      2 C2          1.1364    9.7864   -0.2532 C.ar      1 <1>        -0.0636 
      3 C3          0.0591    8.9302    0.0142 C.ar      1 <1>        -0.0645 
      4 C4          0.2674    7.5658    0.2514 C.ar      1 <1>        -0.0543 
      5 C5          1.5729    7.0719    0.2175 C.ar      1 <1>        -0.0210 
      6 C6          2.6337    7.9315   -0.0485 C.ar      1 <1>         0.0268 
      7 C7          3.9012    7.1238   -0.0187 C.2       1 <1>         0.1267 
      8 C8          3.5185    5.7397    0.2788 C.2       1 <1>         0.0321 
      9 C9          2.0191    5.6215    0.4485 C.3       1 <1>         0.0095 
     10 O10         5.0350    7.5341   -0.2037 O.2       1 <1>        -0.3977 
     11 C11         4.3664    4.7128    0.3879 C.2       1 <1>         0.0828 
     12 O12         3.8864    3.4930    0.6687 O.3       1 <1>        -0.2675 
     13 C13         4.9077    2.4862    0.7612 C.3       1 <1>         0.2398 
     14 O14         5.6225    2.3878   -0.4879 O.3       1 <1>        -0.2303 
     15 C15         5.3405    1.1792   -0.9583 C.2       1 <1>         0.2496 
     16 C16         4.4773    0.3618   -0.1131 C.2       1 <1>         0.0293 
     17 C17         4.2249    1.1513    0.9290 C.2       1 <1>        -0.0007 
     18 C18         3.9920   -1.0414   -0.3548 C.3       1 <1>        -0.0323 
     19 O19         5.7823    0.7838   -2.0233 O.2       1 <1>        -0.3691 
     20 H1          3.2916    9.9399   -0.4932 H         1 <1>         0.0648 
     21 H2          0.9552   10.8414   -0.4350 H         1 <1>         0.0569 
     22 H3         -0.9504    9.3293    0.0378 H         1 <1>         0.0632 
     23 H4         -0.5657    6.9019    0.4576 H         1 <1>         0.0570 
     24 H5          1.7520    5.2862    1.4619 H         1 <1>         0.0530 
     25 H6          1.5798    4.9524   -0.3068 H         1 <1>         0.0530 
     26 H7          5.4282    4.9260    0.2380 H         1 <1>         0.1123 
     27 H8          5.6045    2.6715    1.5965 H         1 <1>         0.1213 
     28 H9          3.6061    0.8782    1.7829 H         1 <1>         0.0706 
     29 H10         4.4795   -1.4663   -1.2451 H         1 <1>         0.0347 
     30 H11         2.9034   -1.0330   -0.5133 H         1 <1>         0.0347 
     31 H12         4.2253   -1.6734    0.5151 H         1 <1>         0.0347 
@<TRIPOS>BOND
     1    2    1 ar   
     2    2    3 ar   
     3    3    4 ar   
     4    4    5 ar   
     5    5    6 ar   
     6    1    6 ar   
     7    6    7 1    
     8    7    8 1    
     9    8    9 1    
    10    5    9 1    
    11    7   10 2    
    12    8   11 2    
    13   11   12 1    
    14   12   13 1    
    15   13   14 1    
    16   14   15 1    
    17   15   16 1    
    18   16   17 2    
    19   13   17 1    
    20   16   18 1    
    21   15   19 2    
    22    1   20 1    
    23    2   21 1    
    24    3   22 1    
    25    4   23 1    
    26    9   24 1    
    27    9   25 1    
    28   11   26 1    
    29   13   27 1    
    30   17   28 1    
    31   18   29 1    
    32   18   30 1    
    33   18   31 1    
@<TRIPOS>SUBSTRUCTURE
     1 ****        2 TEMP              0 ****  ****    0 ROOT 
@<TRIPOS>NORMAL
@<TRIPOS>FF_PBC
FORCE_FIELD_SETUP_FEATURE Force Field Setup information
v1.0  0 0.000000 0.000000 0.000000 0.000000 0.000000 0.000000 NONE 0 0 0 0 1 0 0 0 0 0 0 0 0
@<TRIPOS>RENDERING_ATTRS
ANTIALIASED_LINES 
*
