#	Name:			PISM00959
#	Creating user name:	baoopengkun
#	Creation time:		Thu Dec 13 10:35:31 2018

#	Modifying user name:	baoopengkun
#	Modification time:	Thu Dec 13 10:48:25 2018

@<TRIPOS>MOLECULE
PISM00959
   41    43     1     1     0
SMALL
GAST_HUCK


@<TRIPOS>ATOM
      1 C1        -10.0427    8.8657   -6.1715 C.ar      1 <1>        -0.0181 
      2 C2         -9.9198    9.4449   -4.9070 C.ar      1 <1>         0.0714 
      3 C3        -10.7087    8.9740   -3.8563 C.ar      1 <1>        -0.0181 
      4 C4        -11.6266    7.9446   -4.0808 C.ar      1 <1>        -0.0371 
      5 C5        -11.7996    7.3891   -5.3564 C.ar      1 <1>        -0.0202 
      6 C6        -10.9621    7.8347   -6.3886 C.ar      1 <1>        -0.0371 
      7 C7        -12.8999    6.3149   -5.5419 C.3       1 <1>         0.0865 
      8 O8        -12.8574    5.4713   -4.3738 O.3       1 <1>        -0.4211 
      9 C9        -12.7195    5.3605   -6.7694 C.3       1 <1>        -0.0358 
     10 C10       -14.2924    7.0077   -5.5515 C.3       1 <1>         0.0820 
     11 N11       -14.5102    7.8489   -4.3820 N.pl3     1 <1>        -0.1838 
     12 N12       -14.9993    7.4506   -3.1741 N.2       1 <1>        -0.1909 
     13 C13       -15.1190    8.4117   -2.3356 C.2       1 <1>         0.0618 
     14 N14       -14.6621    9.5192   -3.1289 N.2       1 <1>        -0.2870 
     15 C15       -14.3403    9.1325   -4.2783 C.2       1 <1>         0.1269 
     16 C16       -13.3072    5.8462   -8.1264 C.3       1 <1>        -0.0239 
     17 C17       -12.8537    4.8908   -9.2403 C.ar      1 <1>        -0.0434 
     18 C18       -11.6749    5.1439   -9.9515 C.ar      1 <1>        -0.0597 
     19 C19       -11.2659    4.2799  -10.9715 C.ar      1 <1>        -0.0546 
     20 C20       -12.0329    3.1551  -11.2854 C.ar      1 <1>         0.0330 
     21 C21       -13.2067    2.8937  -10.5742 C.ar      1 <1>        -0.0546 
     22 C22       -13.6131    3.7571   -9.5525 C.ar      1 <1>        -0.0597 
     23 Cl23      -11.5237    2.0750  -12.5672 Cl        1 <1>        -0.0771 
     24 Cl24       -8.7829   10.7506   -4.6405 Cl        1 <1>        -0.0420 
     25 H1         -9.4187    9.2197   -6.9861 H         1 <1>         0.0703 
     26 H2        -10.6075    9.4088   -2.8669 H         1 <1>         0.0703 
     27 H3        -12.2113    7.5795   -3.2415 H         1 <1>         0.0848 
     28 H4        -10.9992    7.3933   -7.3743 H         1 <1>         0.0848 
     29 H5        -12.0262    5.0195   -4.2670 H         1 <1>         0.1959 
     30 H6        -13.2401    4.4140   -6.5457 H         1 <1>         0.0218 
     31 H7        -11.6504    5.1170   -6.8758 H         1 <1>         0.0218 
     32 H8        -15.0777    6.2366   -5.5618 H         1 <1>         0.0570 
     33 H9        -14.4068    7.6406   -6.4436 H         1 <1>         0.0570 
     34 H10       -15.4722    8.3921   -1.3058 H         1 <1>         0.0863 
     35 H11       -13.9725    9.7954   -5.0604 H         1 <1>         0.1361 
     36 H12       -12.9980    6.8696   -8.3798 H         1 <1>         0.0420 
     37 H13       -14.4086    5.8434   -8.0945 H         1 <1>         0.0420 
     38 H14       -11.0694    6.0126   -9.7143 H         1 <1>         0.0557 
     39 H15       -10.3522    4.4805  -11.5217 H         1 <1>         0.0606 
     40 H16       -13.8014    2.0189  -10.8168 H         1 <1>         0.0606 
     41 H17       -14.5227    3.5401   -9.0014 H         1 <1>         0.0557 
@<TRIPOS>BOND
     1    2    1 ar   
     2    2    3 ar   
     3    3    4 ar   
     4    4    5 ar   
     5    5    6 ar   
     6    1    6 ar   
     7    5    7 1    
     8    7    8 1    
     9    7    9 1    
    10    7   10 1    
    11   10   11 1    
    12   11   12 1    
    13   12   13 2    
    14   13   14 1    
    15   14   15 2    
    16   11   15 1    
    17    9   16 1    
    18   16   17 1    
    19   17   18 ar   
    20   18   19 ar   
    21   19   20 ar   
    22   20   21 ar   
    23   21   22 ar   
    24   17   22 ar   
    25   20   23 1    
    26    2   24 1    
    27    1   25 1    
    28    3   26 1    
    29    4   27 1    
    30    6   28 1    
    31    8   29 1    
    32    9   30 1    
    33    9   31 1    
    34   10   32 1    
    35   10   33 1    
    36   13   34 1    
    37   15   35 1    
    38   16   36 1    
    39   16   37 1    
    40   18   38 1    
    41   19   39 1    
    42   21   40 1    
    43   22   41 1    
@<TRIPOS>SUBSTRUCTURE
     1 ****        2 TEMP              0 ****  ****    0 ROOT 
@<TRIPOS>NORMAL
@<TRIPOS>FF_PBC
FORCE_FIELD_SETUP_FEATURE Force Field Setup information
v1.0  0 0.000000 0.000000 0.000000 0.000000 0.000000 0.000000 NONE 0 0 0 0 1 0 0 0 0 0 0 0 0
