#	Name:			PISM00853
#	Creating user name:	baoopengkun
#	Creation time:		Thu Dec 13 15:12:19 2018

#	Modifying user name:	baoopengkun
#	Modification time:	Thu Dec 13 20:07:50 2018

@<TRIPOS>MOLECULE
PISM00853
   24    25     1     1     0
SMALL
GAST_HUCK


@<TRIPOS>ATOM
      1 Cl1        -2.7293   -0.6255    2.2555 Cl        1 <1>        -0.0736 
      2 C2         -1.9747   -0.0429    0.7860 C.ar      1 <1>         0.0323 
      3 C3         -2.7421    0.6066   -0.1850 C.ar      1 <1>        -0.0451 
      4 C4         -2.1405    1.0698   -1.3585 C.ar      1 <1>         0.0323 
      5 C5         -0.7699    0.8849   -1.5598 C.ar      1 <1>        -0.0188 
      6 C6         -0.0015    0.2408   -0.5865 C.ar      1 <1>         0.0988 
      7 C7         -0.6042   -0.2274    0.5838 C.ar      1 <1>        -0.0188 
      8 Cl8        -3.1035    1.8815   -2.5759 Cl        1 <1>        -0.0736 
      9 O9          1.3658    0.0646   -0.7838 O.3       1 <1>        -0.2709 
     10 C10         2.1403    1.1769   -0.3185 C.3       1 <1>         0.2356 
     11 O11         1.7482    2.3782   -1.0133 O.3       1 <1>        -0.2313 
     12 C12         2.8086    2.7294   -1.7293 C.2       1 <1>         0.2494 
     13 C13         3.9813    1.8756   -1.5750 C.2       1 <1>         0.0292 
     14 C14         3.5764    0.9422   -0.7160 C.2       1 <1>        -0.0020 
     15 C15         5.3259    2.0117   -2.2355 C.3       1 <1>        -0.0323 
     16 O16         2.7977    3.7056   -2.4590 O.2       1 <1>        -0.3691 
     17 H1         -3.8055    0.7514   -0.0279 H         1 <1>         0.0535 
     18 H2         -0.2998    1.2406   -2.4700 H         1 <1>         0.0549 
     19 H3         -0.0064   -0.7337    1.3335 H         1 <1>         0.0549 
     20 H4          2.0489    1.3144    0.7719 H         1 <1>         0.1198 
     21 H5          4.1889    0.1176   -0.3537 H         1 <1>         0.0705 
     22 H6          5.6510    1.0382   -2.6320 H         1 <1>         0.0347 
     23 H7          6.0624    2.3666   -1.4995 H         1 <1>         0.0347 
     24 H8          5.2715    2.7334   -3.0644 H         1 <1>         0.0347 
@<TRIPOS>BOND
     1    2    1 1    
     2    2    3 ar   
     3    3    4 ar   
     4    4    5 ar   
     5    5    6 ar   
     6    6    7 ar   
     7    2    7 ar   
     8    4    8 1    
     9    6    9 1    
    10    9   10 1    
    11   10   11 1    
    12   11   12 1    
    13   12   13 1    
    14   13   14 2    
    15   10   14 1    
    16   13   15 1    
    17   12   16 2    
    18    3   17 1    
    19    5   18 1    
    20    7   19 1    
    21   10   20 1    
    22   14   21 1    
    23   15   22 1    
    24   15   23 1    
    25   15   24 1    
@<TRIPOS>SUBSTRUCTURE
     1 ****        2 TEMP              0 ****  ****    0 ROOT 
@<TRIPOS>NORMAL
@<TRIPOS>FF_PBC
FORCE_FIELD_SETUP_FEATURE Force Field Setup information
v1.0  0 0.000000 0.000000 0.000000 0.000000 0.000000 0.000000 NONE 0 0 0 0 1 0 0 0 0 0 0 0 0
