#	Name:			PISM00441
#	Creating user name:	malab
#	Creation time:		Tue Apr 02 15:57:23 2019

#	Modifying user name:	malab
#	Modification time:	Tue Apr 02 15:57:49 2019

@<TRIPOS>MOLECULE
PISM00441
   38    38     1     1     0
SMALL
GAST_HUCK


@<TRIPOS>ATOM
      1 C1         -5.0678    2.9552    3.1100 C.3       1 <1>         0.0217 
      2 C2         -5.8847    3.0337    4.4289 C.3       1 <1>         0.0293 
      3 C3         -4.9624    3.2850    5.5882 C.2       1 <1>         0.1475 
      4 C4         -3.6545    3.9298    5.3918 C.2       1 <1>         0.0132 
      5 C5         -3.2372    4.3535    4.1916 C.2       1 <1>        -0.0659 
      6 C6         -4.0926    4.1699    2.9554 C.3       1 <1>         0.0477 
      7 O7         -5.3010    2.9533    6.7125 O.2       1 <1>        -0.3649 
      8 C8         -1.9075    5.0495    4.0000 C.3       1 <1>        -0.0367 
      9 C9         -4.8285    5.4809    2.7786 C.2       1 <1>        -0.0852 
     10 C10        -4.5381    6.3764    1.8248 C.2       1 <1>        -0.0144 
     11 C11        -5.2926    7.6374    1.6673 C.2       1 <1>         0.0276 
     12 C12        -6.8033    7.5728    1.6782 C.3       1 <1>        -0.0121 
     13 C13        -4.6792    8.8205    1.5080 C.2       1 <1>         0.0681 
     14 C14        -3.2251    9.0715    1.4998 C.2       1 <1>         0.2775 
     15 O15        -2.4345    8.1769    1.7525 O.2       1 <1>        -0.3439 
     16 O16        -2.7737   10.2960    1.2213 O.3       1 <1>        -0.2912 
     17 O17        -3.2578    3.9793    1.7963 O.3       1 <1>        -0.4646 
     18 C18        -6.0235    2.8545    1.8896 C.3       1 <1>        -0.0601 
     19 C19        -4.2863    1.7168    3.1833 C.1       1 <1>        -0.1131 
     20 C20        -3.6457    0.6999    3.2448 C.1       1 <1>        -0.1201 
     21 H1         -6.4118    2.0795    4.5915 H         1 <1>         0.0484 
     22 H2         -6.6431    3.8280    4.4076 H         1 <1>         0.0484 
     23 H3         -3.0347    4.0554    6.2787 H         1 <1>         0.0970 
     24 H4         -1.2249    4.4092    3.4229 H         1 <1>         0.0416 
     25 H5         -1.4206    5.2918    4.9563 H         1 <1>         0.0416 
     26 H6         -2.0612    5.9894    3.4493 H         1 <1>         0.0416 
     27 H7         -5.6311    5.7258    3.4717 H         1 <1>         0.0537 
     28 H8         -3.7225    6.1915    1.1259 H         1 <1>         0.1123 
     29 H9         -7.2300    8.2069    0.8857 H         1 <1>         0.0431 
     30 H10        -7.1783    7.9187    2.6530 H         1 <1>         0.0431 
     31 H11        -7.1554    6.5434    1.5098 H         1 <1>         0.0431 
     32 H12        -5.2863    9.7154    1.3762 H         1 <1>         0.1013 
     33 H13        -1.8236   10.3398    1.2508 H         1 <1>         0.2519 
     34 H14        -2.7185    3.1971    1.8374 H         1 <1>         0.1804 
     35 H15        -5.4449    2.7659    0.9573 H         1 <1>         0.0230 
     36 H16        -6.6645    3.7457    1.8184 H         1 <1>         0.0230 
     37 H17        -6.6712    1.9690    1.9827 H         1 <1>         0.0230 
     38 H18        -3.0831   -0.1920    3.2984 H         1 <1>         0.1228 
@<TRIPOS>BOND
     1    2    1 1    
     2    2    3 1    
     3    3    4 1    
     4    4    5 2    
     5    5    6 1    
     6    1    6 1    
     7    3    7 2    
     8    5    8 1    
     9    6    9 1    
    10    9   10 2    
    11   10   11 1    
    12   11   12 1    
    13   11   13 2    
    14   13   14 1    
    15   14   15 2    
    16   14   16 1    
    17    6   17 1    
    18    1   18 1    
    19    1   19 1    
    20   19   20 3    
    21    2   21 1    
    22    2   22 1    
    23    4   23 1    
    24    8   24 1    
    25    8   25 1    
    26    8   26 1    
    27    9   27 1    
    28   10   28 1    
    29   12   29 1    
    30   12   30 1    
    31   12   31 1    
    32   13   32 1    
    33   16   33 1    
    34   17   34 1    
    35   18   35 1    
    36   18   36 1    
    37   18   37 1    
    38   20   38 1    
@<TRIPOS>SUBSTRUCTURE
     1 ****        2 TEMP              0 ****  ****    0 ROOT 
@<TRIPOS>NORMAL
@<TRIPOS>FF_PBC
FORCE_FIELD_SETUP_FEATURE Force Field Setup information
v1.0  0 0.000000 0.000000 0.000000 0.000000 0.000000 0.000000 NONE 0 0 0 0 1 0 0 0 0 0 0 0 0
