#	Name:			PISM00829.1
#	Creating user name:	baoopengkun
#	Creation time:		Sat Dec 15 02:53:22 2018

#	Modifying user name:	baoopengkun
#	Modification time:	Sat Dec 15 02:57:47 2018

@<TRIPOS>MOLECULE
PISM00829.1
   25    26     1     1     0
SMALL
GAST_HUCK


@<TRIPOS>ATOM
      1 Br1        -1.1036   19.1853  -42.4979 Br        1 <1>        -0.0600 
      2 C2         -0.2859   18.9080  -44.1370 C.ar      1 <1>         0.0012 
      3 C3          0.7667   17.9946  -44.2477 C.ar      1 <1>        -0.0611 
      4 C4          1.3786   17.7815  -45.4864 C.ar      1 <1>        -0.0298 
      5 C5          0.9370   18.4777  -46.6144 C.ar      1 <1>         0.1005 
      6 C6         -0.1050   19.4024  -46.5010 C.ar      1 <1>        -0.0298 
      7 C7         -0.7207   19.6127  -45.2636 C.ar      1 <1>        -0.0611 
      8 O8          1.5394   18.2457  -47.8488 O.3       1 <1>        -0.2763 
      9 C9          0.7565   17.4235  -48.7230 C.3       1 <1>         0.1932 
     10 C10         1.5778   17.0841  -49.9409 C.2       1 <1>        -0.0119 
     11 C11         1.8122   15.7723  -50.0347 C.2       1 <1>         0.0164 
     12 C12         1.1586   15.1400  -48.8869 C.2       1 <1>         0.1910 
     13 N13         0.5679   16.0964  -48.1617 N.am      1 <1>        -0.2486 
     14 C14         2.5955   15.0771  -51.1149 C.3       1 <1>        -0.0334 
     15 O15         1.1580   13.9457  -48.6456 O.2       1 <1>        -0.3960 
     16 H1          1.1085   17.4509  -43.3727 H         1 <1>         0.0615 
     17 H2          2.1969   17.0749  -45.5791 H         1 <1>         0.0549 
     18 H3         -0.4331   19.9569  -47.3739 H         1 <1>         0.0549 
     19 H4         -1.5361   20.3237  -45.1769 H         1 <1>         0.0615 
     20 H5         -0.2003   17.8895  -49.0126 H         1 <1>         0.1102 
     21 H6          1.9374   17.8260  -50.6527 H         1 <1>         0.0689 
     22 H7          0.0545   15.9234  -47.3220 H         1 <1>         0.1895 
     23 H8          2.5475   13.9860  -50.9809 H         1 <1>         0.0348 
     24 H9          3.6476   15.3957  -51.0708 H         1 <1>         0.0348 
     25 H10         2.1813   15.3334  -52.1014 H         1 <1>         0.0348 
@<TRIPOS>BOND
     1    2    1 1    
     2    2    3 ar   
     3    3    4 ar   
     4    4    5 ar   
     5    5    6 ar   
     6    6    7 ar   
     7    2    7 ar   
     8    5    8 1    
     9    8    9 1    
    10    9   10 1    
    11   10   11 2    
    12   11   12 1    
    13   12   13 am   
    14    9   13 1    
    15   11   14 1    
    16   12   15 2    
    17    3   16 1    
    18    4   17 1    
    19    6   18 1    
    20    7   19 1    
    21    9   20 1    
    22   10   21 1    
    23   13   22 1    
    24   14   23 1    
    25   14   24 1    
    26   14   25 1    
@<TRIPOS>SUBSTRUCTURE
     1 ****        2 TEMP              0 ****  ****    0 ROOT 
@<TRIPOS>NORMAL
@<TRIPOS>FF_PBC
FORCE_FIELD_SETUP_FEATURE Force Field Setup information
v1.0  0 0.000000 0.000000 0.000000 0.000000 0.000000 0.000000 NONE 0 0 0 0 1 0 0 0 0 0 0 0 0
