#	Name:			PISM00882.1
#	Creating user name:	baoopengkun
#	Creation time:		Fri Dec 14 09:30:18 2018

#	Modifying user name:	baoopengkun
#	Modification time:	Fri Dec 14 09:33:37 2018

@<TRIPOS>MOLECULE
PISM00882.1
   29    31     1     1     0
SMALL
GAST_HUCK


@<TRIPOS>ATOM
      1 C1         -1.6812    1.1721    3.5841 C.ar      1 <1>        -0.0661 
      2 C2         -2.5081    0.1573    4.0724 C.ar      1 <1>        -0.0661 
      3 C3         -2.1106   -1.1769    3.9544 C.ar      1 <1>        -0.0661 
      4 C4         -0.8932   -1.4919    3.3440 C.ar      1 <1>        -0.0601 
      5 C5         -0.0636   -0.4818    2.8440 C.ar      1 <1>        -0.0196 
      6 C6         -0.4649    0.8538    2.9727 C.ar      1 <1>        -0.0601 
      7 C7          1.2380   -0.8773    2.1766 C.2       1 <1>         0.0704 
      8 N8          1.6114   -2.2516    1.9411 N.2       1 <1>        -0.2162 
      9 N9          2.8077   -2.1422    1.3400 N.2       1 <1>        -0.0855 
     10 N10         3.1408   -0.8417    1.2047 N.pl3     1 <1>        -0.1231 
     11 C11         2.2110   -0.0840    1.7147 C.2       1 <1>         0.0936 
     12 C12         4.3820   -0.3735    0.6134 C.3       1 <1>         0.2444 
     13 C13         5.5045   -1.3308    0.9326 C.2       1 <1>         0.0018 
     14 C14         6.4634   -0.7147    1.6206 C.2       1 <1>         0.0295 
     15 C15         5.9639    0.6491    1.7560 C.2       1 <1>         0.2498 
     16 O16         4.7838    0.8840    1.1952 O.3       1 <1>        -0.2283 
     17 O17         6.5825    1.5215    2.3404 O.2       1 <1>        -0.3691 
     18 C18         7.7521   -1.2930    2.1372 C.3       1 <1>        -0.0323 
     19 H1         -1.9856    2.2102    3.6792 H         1 <1>         0.0606 
     20 H2         -3.4559    0.4038    4.5411 H         1 <1>         0.0581 
     21 H3         -2.7473   -1.9688    4.3368 H         1 <1>         0.0606 
     22 H4         -0.5942   -2.5319    3.2601 H         1 <1>         0.0581 
     23 H5          0.1541    1.6605    2.6002 H         1 <1>         0.0581 
     24 H6          2.2430    1.0032    1.7462 H         1 <1>         0.1081 
     25 H7          4.2607   -0.2660   -0.4763 H         1 <1>         0.1244 
     26 H8          5.5245   -2.3803    0.6405 H         1 <1>         0.0709 
     27 H9          7.5483   -2.2044    2.7189 H         1 <1>         0.0347 
     28 H10         8.2662   -0.5651    2.7824 H         1 <1>         0.0347 
     29 H11         8.4062   -1.5452    1.2894 H         1 <1>         0.0347 
@<TRIPOS>BOND
     1    2    1 ar   
     2    2    3 ar   
     3    3    4 ar   
     4    4    5 ar   
     5    5    6 ar   
     6    1    6 ar   
     7    5    7 1    
     8    7    8 1    
     9    8    9 2    
    10    9   10 1    
    11   10   11 1    
    12    7   11 2    
    13   10   12 1    
    14   12   13 1    
    15   13   14 2    
    16   14   15 1    
    17   15   16 1    
    18   12   16 1    
    19   15   17 2    
    20   14   18 1    
    21    1   19 1    
    22    2   20 1    
    23    3   21 1    
    24    4   22 1    
    25    6   23 1    
    26   11   24 1    
    27   12   25 1    
    28   13   26 1    
    29   18   27 1    
    30   18   28 1    
    31   18   29 1    
@<TRIPOS>SUBSTRUCTURE
     1 ****        2 TEMP              0 ****  ****    0 ROOT 
@<TRIPOS>NORMAL
@<TRIPOS>FF_PBC
FORCE_FIELD_SETUP_FEATURE Force Field Setup information
v1.0  0 0.000000 0.000000 0.000000 0.000000 0.000000 0.000000 NONE 0 0 0 0 1 0 0 0 0 0 0 0 0
