#	Name:			PISM00249
#	Creating user name:	14062
#	Creation time:		Fri Jul 12 13:14:11 2019

#	Modifying user name:	14062
#	Modification time:	Fri Jul 12 13:16:37 2019

@<TRIPOS>MOLECULE
PISM00249
  144   147     1     2     0
SMALL
GAST_HUCK


@<TRIPOS>ATOM
      1 C1          4.8171  -10.2164  -11.2327 C.3       1 <1>         0.0879 
      2 C2          5.3982  -10.8293   -9.9097 C.3       1 <1>         0.1137 
      3 C3          4.3270  -11.1873   -8.8276 C.3       1 <1>         0.0864 
      4 C4          4.8886  -11.8926   -7.5495 C.3       1 <1>        -0.0151 
      5 C5          3.7431  -12.0347   -6.4939 C.3       1 <1>        -0.0465 
      6 C6          4.0668  -12.9785   -5.3017 C.3       1 <1>        -0.0461 
      7 C7          2.8253  -13.1782   -4.3903 C.3       1 <1>        -0.0364 
      8 C8          2.4557  -11.9127   -3.6481 C.2       1 <1>        -0.0983 
      9 C9          1.3341  -11.2154   -3.8806 C.2       1 <1>        -0.0928 
     10 C10         0.9402   -9.9961   -3.0656 C.3       1 <1>         0.0063 
     11 C11         0.1038  -10.5044   -1.8390 C.3       1 <1>        -0.0089 
     12 C12        -0.0640   -9.4426   -0.7075 C.3       1 <1>         0.0486 
     13 C13        -1.2752  -11.0980   -2.2503 C.3       1 <1>        -0.0584 
     14 O14        -0.3424   -7.8902   -3.1336 O.3       1 <1>        -0.3896 
     15 C15         0.2148   -8.9258   -3.9452 C.3       1 <1>         0.0670 
     16 C16         1.0892   -8.2938   -5.0766 C.3       1 <1>         0.0018 
     17 C17         4.0944   -8.8241  -11.0899 C.3       1 <1>         0.0041 
     18 C18         4.3178   -7.8396  -12.3087 C.3       1 <1>         0.0608 
     19 C19         4.6222   -6.3561  -11.8886 C.3       1 <1>         0.0712 
     20 C20         3.6682   -5.8906  -10.8114 C.2       1 <1>        -0.0297 
     21 C21         4.0458   -5.5577   -9.5707 C.2       1 <1>         0.0834 
     22 C22         3.0994   -5.2843   -8.4786 C.2       1 <1>         0.3219 
     23 O23         3.5753   -4.8640   -7.2994 O.3       1 <1>        -0.2629 
     24 O24         1.9140   -5.4874   -8.6776 O.2       1 <1>        -0.3129 
     25 O25         6.4078  -11.8600  -10.0882 O.3       1 <1>        -0.3430 
     26 C26         5.9710  -13.1048  -10.6698 C.3       1 <1>         0.1604 
     27 O27         5.8676  -13.0739  -12.1094 O.3       1 <1>        -0.3468 
     28 C28         6.8650  -14.2769  -10.1878 C.3       1 <1>         0.0025 
     29 C29         8.3049  -14.1846  -10.7638 C.3       1 <1>        -0.0213 
     30 C30         8.1619  -14.0903  -12.3182 C.3       1 <1>         0.0386 
     31 C31         7.1268  -13.0330  -12.8267 C.3       1 <1>         0.0746 
     32 C32         7.6479  -11.5930  -13.0715 C.3       1 <1>        -0.0371 
     33 C33         9.1314  -13.0948  -10.0167 C.3       1 <1>        -0.0608 
     34 N34         9.4185  -14.1379  -13.1239 N.3       1 <1>        -0.3027 
     35 C35         9.8654  -15.4794  -13.5804 C.3       1 <1>        -0.0127 
     36 C36        10.5477  -13.2110  -12.8683 C.3       1 <1>        -0.0127 
     37 O37         3.2916  -12.0397   -9.3600 O.3       1 <1>        -0.3889 
     38 C38         6.1249  -11.1553   -6.9556 C.3       1 <1>        -0.0600 
     39 H1          5.7266  -10.0456  -11.8142 H         1 <1>         0.0623 
     40 O40         3.9584  -11.1277  -11.9474 O.3       1 <1>        -0.3888 
     41 C41         2.5573   -8.9918  -10.8402 C.3       1 <1>        -0.0585 
     42 O42         5.9987   -6.2447  -11.4684 O.3       1 <1>        -0.4295 
     43 O43         5.3233   -8.2465  -13.2567 O.3       1 <1>        -0.3992 
     44 C44         4.4824   -5.3946  -13.0981 C.3       1 <1>        -0.0633 
     45 C45         2.8354   -5.2512   -6.1155 C.3       1 <1>         0.0972 
     46 C46         3.1710   -6.6939   -5.6269 C.3       1 <1>         0.0134 
     47 C47         2.1192   -7.2194   -4.5845 C.3       1 <1>         0.0697 
     48 O48         1.5135   -6.1291   -3.8391 O.3       1 <1>        -0.3448 
     49 C49         0.8391   -5.0888   -4.5999 C.3       1 <1>         0.1733 
     50 C50         1.3073   -5.0201   -6.0807 C.3       1 <1>         0.0323 
     51 C51         3.4578   -7.6922   -6.7837 C.3       1 <1>        -0.0574 
     52 H2          6.0125  -10.0228   -9.4770 H         1 <1>         0.0649 
     53 C53        -0.7141   -5.1674   -4.5220 C.3       1 <1>         0.0016 
     54 O54         1.3377   -3.8421   -4.0597 O.3       1 <1>        -0.3452 
     55 C55         0.6721   -3.3002   -2.8975 C.3       1 <1>         0.0643 
     56 C56        -0.1735   -4.3592   -2.1491 C.3       1 <1>        -0.0262 
     57 C57        -1.2725   -4.9166   -3.0880 C.3       1 <1>        -0.0458 
     58 C58        -0.0810   -2.0189   -3.3717 C.3       1 <1>        -0.0004 
     59 C59        -0.6907   -1.0704   -2.2889 C.3       1 <1>         0.0574 
     60 C60        -2.1596   -1.3973   -1.8864 C.3       1 <1>        -0.0296 
     61 C61        -2.7385   -0.3234   -0.9267 C.3       1 <1>        -0.0629 
     62 H3          3.8833  -10.2458   -8.4713 H         1 <1>         0.0623 
     63 O63         0.1577   -0.9254   -1.1382 O.3       1 <1>        -0.3917 
     64 H4          5.2058  -12.9065   -7.8388 H         1 <1>         0.0324 
     65 H5          2.8509  -12.4456   -6.9927 H         1 <1>         0.0270 
     66 H6          3.4746  -11.0454   -6.0970 H         1 <1>         0.0270 
     67 O67        -0.2856  -10.0506    0.5786 O.3       1 <1>        -0.3946 
     68 H7          4.8812  -12.5806   -4.6780 H         1 <1>         0.0285 
     69 H8          4.3812  -13.9588   -5.6972 H         1 <1>         0.0285 
     70 H9          3.0545  -13.9459   -3.6326 H         1 <1>         0.0388 
     71 H10         1.9815  -13.5580   -4.9888 H         1 <1>         0.0388 
     72 H11         3.1471  -11.5771   -2.8739 H         1 <1>         0.0450 
     73 H12         0.6640  -11.5517   -4.6721 H         1 <1>         0.0454 
     74 H13         1.8558   -9.5459   -2.6559 H         1 <1>         0.0452 
     75 H14         0.6925  -11.3207   -1.3826 H         1 <1>         0.0343 
     76 H15        -0.8814   -8.7355   -0.9222 H         1 <1>         0.0561 
     77 H16         0.8660   -8.8654   -0.5881 H         1 <1>         0.0561 
     78 H17        -1.1654  -11.8462   -3.0486 H         1 <1>         0.0235 
     79 H18        -1.9523  -10.3058   -2.6023 H         1 <1>         0.0235 
     80 H19        -1.7569  -11.5989   -1.3977 H         1 <1>         0.0235 
     81 H20         0.3398   -7.3610   -2.7320 H         1 <1>         0.2100 
     82 H21        -0.6417   -9.4263   -4.4267 H         1 <1>         0.0617 
     83 H22         0.4146   -7.8451   -5.8154 H         1 <1>         0.0317 
     84 H23         1.5916   -9.1362   -5.5715 H         1 <1>         0.0317 
     85 H24         4.5092   -8.3408  -10.1935 H         1 <1>         0.0340 
     86 H25         3.4016   -7.8514  -12.9205 H         1 <1>         0.0505 
     87 H26         2.6113   -5.8442  -11.0709 H         1 <1>         0.0689 
     88 H27         5.0917   -5.5042   -9.2797 H         1 <1>         0.1483 
     89 H28         4.9677  -13.3693  -10.3075 H         1 <1>         0.0910 
     90 H29         6.4014  -15.2216  -10.5206 H         1 <1>         0.0317 
     91 H30         6.8874  -14.3021   -9.0869 H         1 <1>         0.0317 
     92 H31         8.8140  -15.1376  -10.5289 H         1 <1>         0.0316 
     93 H32         7.6328  -15.0315  -12.5565 H         1 <1>         0.0490 
     94 H33         6.8418  -13.3531  -13.8463 H         1 <1>         0.0610 
     95 H34         7.9301  -11.0835  -12.1436 H         1 <1>         0.0255 
     96 H35         6.8616  -11.0056  -13.5692 H         1 <1>         0.0255 
     97 H36         8.5058  -11.5988  -13.7589 H         1 <1>         0.0255 
     98 H37         8.9868  -13.1895   -8.9295 H         1 <1>         0.0233 
     99 H38         8.8462  -12.0761  -10.2965 H         1 <1>         0.0233 
    100 H39        10.2087  -13.2185  -10.1893 H         1 <1>         0.0233 
    101 H40         9.0755  -15.9729  -14.1673 H         1 <1>         0.0391 
    102 H41        10.1103  -16.1071  -12.7097 H         1 <1>         0.0391 
    103 H42        10.7556  -15.4121  -14.2251 H         1 <1>         0.0391 
    104 H43        11.3195  -13.7011  -12.2552 H         1 <1>         0.0391 
    105 H44        10.2505  -12.2772  -12.3758 H         1 <1>         0.0391 
    106 H45        10.9993  -12.9418  -13.8351 H         1 <1>         0.0391 
    107 H46         2.9203  -11.7425  -10.1854 H         1 <1>         0.2099 
    108 H47         6.4849  -11.6432   -6.0403 H         1 <1>         0.0233 
    109 H48         5.8717  -10.1116   -6.7173 H         1 <1>         0.0233 
    110 H49         6.9713  -11.1631   -7.6575 H         1 <1>         0.0233 
    111 H50         4.4170  -11.9030  -12.2650 H         1 <1>         0.2099 
    112 H51         2.0937   -9.5509  -11.6670 H         1 <1>         0.0234 
    113 H52         2.0423   -8.0274  -10.7795 H         1 <1>         0.0234 
    114 H53         2.3143   -9.5072   -9.9063 H         1 <1>         0.0234 
    115 H54         6.2713   -6.8656  -10.8022 H         1 <1>         0.1931 
    116 H55         6.2081   -8.0732  -12.9504 H         1 <1>         0.2086 
    117 H56         5.1791   -5.6858  -13.8989 H         1 <1>         0.0141 
    118 H57         4.7226   -4.3662  -12.7864 H         1 <1>         0.0141 
    119 H58         3.4582   -5.4089  -13.5016 H         1 <1>         0.0141 
    120 H59         3.2558   -4.5477   -5.3750 H         1 <1>         0.0653 
    121 H60         4.1471   -6.6006   -5.1115 H         1 <1>         0.0352 
    122 H61         2.7089   -7.7532   -3.8234 H         1 <1>         0.0601 
    123 H62         1.0713   -4.0311   -6.5061 H         1 <1>         0.0346 
    124 H63         0.7730   -5.7747   -6.6683 H         1 <1>         0.0346 
    125 H64         4.3033   -7.3561   -7.4022 H         1 <1>         0.0234 
    126 H65         2.5767   -7.8222   -7.4301 H         1 <1>         0.0234 
    127 H66         3.7489   -8.6642   -6.3642 H         1 <1>         0.0234 
    128 H67        -1.0669   -6.1390   -4.8978 H         1 <1>         0.0317 
    129 H68        -1.1127   -4.4010   -5.2057 H         1 <1>         0.0317 
    130 H69         1.4919   -2.9759   -2.2343 H         1 <1>         0.0598 
    131 H70        -0.6081   -3.9629   -1.2222 H         1 <1>         0.0290 
    132 H71         0.5073   -5.1634   -1.8342 H         1 <1>         0.0290 
    133 H72        -2.1106   -4.2027   -3.1423 H         1 <1>         0.0268 
    134 H73        -1.6823   -5.8373   -2.6425 H         1 <1>         0.0268 
    135 H74        -0.8510   -2.2686   -4.1142 H         1 <1>         0.0315 
    136 H75         0.6882   -1.4345   -3.9064 H         1 <1>         0.0315 
    137 H76        -0.7331   -0.0629   -2.7405 H         1 <1>         0.0594 
    138 H77        -2.2309   -2.3683   -1.3804 H         1 <1>         0.0287 
    139 H78        -2.7906   -1.4383   -2.7900 H         1 <1>         0.0287 
    140 H79        -2.7318    0.6689   -1.4039 H         1 <1>         0.0231 
    141 H80        -2.1439   -0.2730   -0.0013 H         1 <1>         0.0231 
    142 H81        -3.7779   -0.5732   -0.6597 H         1 <1>         0.0231 
    143 H82         0.1898   -1.7030   -0.5930 H         1 <1>         0.2098 
    144 H83        -1.1016  -10.5358    0.6388 H         1 <1>         0.2094 
@<TRIPOS>BOND
     1    2    1 1    
     2    2    3 1    
     3    3    4 1    
     4    4    5 1    
     5    5    6 1    
     6    6    7 1    
     7    7    8 1    
     8    8    9 2    
     9    9   10 1    
    10   10   11 1    
    11   11   12 1    
    12   11   13 1    
    13   15   14 1    
    14    1   39 1    
    15   10   15 1    
    16   15   16 1    
    17    1   17 1    
    18   17   18 1    
    19   18   19 1    
    20   19   20 1    
    21   20   21 2    
    22   21   22 1    
    23   22   23 1    
    24   22   24 2    
    25    2   25 1    
    26   25   26 1    
    27   26   27 1    
    28   26   28 1    
    29   28   29 1    
    30   29   30 1    
    31   31   30 1    
    32   27   31 1    
    33   31   32 1    
    34   29   33 1    
    35   30   34 1    
    36   34   35 1    
    37   34   36 1    
    38    3   37 1    
    39    4   38 1    
    40    2   52 1    
    41    1   40 1    
    42   17   41 1    
    43   18   43 1    
    44   19   42 1    
    45   19   44 1    
    46   23   45 1    
    47   45   46 1    
    48   46   47 1    
    49   47   48 1    
    50   49   48 1    
    51   50   49 1    
    52   45   50 1    
    53   16   47 1    
    54    3   62 1    
    55   46   51 1    
    56   49   53 1    
    57   49   54 1    
    58   54   55 1    
    59   55   56 1    
    60   57   56 1    
    61   53   57 1    
    62   55   58 1    
    63   58   59 1    
    64   59   60 1    
    65   60   61 1    
    66    4   64 1    
    67   59   63 1    
    68    5   65 1    
    69    5   66 1    
    70    6   68 1    
    71   12   67 1    
    72    6   69 1    
    73    7   70 1    
    74    7   71 1    
    75    8   72 1    
    76    9   73 1    
    77   10   74 1    
    78   11   75 1    
    79   12   76 1    
    80   12   77 1    
    81   13   78 1    
    82   13   79 1    
    83   13   80 1    
    84   14   81 1    
    85   15   82 1    
    86   16   83 1    
    87   16   84 1    
    88   17   85 1    
    89   18   86 1    
    90   20   87 1    
    91   21   88 1    
    92   26   89 1    
    93   28   90 1    
    94   28   91 1    
    95   29   92 1    
    96   30   93 1    
    97   31   94 1    
    98   32   95 1    
    99   32   96 1    
   100   32   97 1    
   101   33   98 1    
   102   33   99 1    
   103   33  100 1    
   104   35  101 1    
   105   35  102 1    
   106   35  103 1    
   107   36  104 1    
   108   36  105 1    
   109   36  106 1    
   110   37  107 1    
   111   38  108 1    
   112   38  109 1    
   113   38  110 1    
   114   40  111 1    
   115   41  112 1    
   116   41  113 1    
   117   41  114 1    
   118   42  115 1    
   119   43  116 1    
   120   44  117 1    
   121   44  118 1    
   122   44  119 1    
   123   45  120 1    
   124   46  121 1    
   125   47  122 1    
   126   50  123 1    
   127   50  124 1    
   128   51  125 1    
   129   51  126 1    
   130   51  127 1    
   131   53  128 1    
   132   53  129 1    
   133   55  130 1    
   134   56  131 1    
   135   56  132 1    
   136   57  133 1    
   137   57  134 1    
   138   58  135 1    
   139   58  136 1    
   140   59  137 1    
   141   60  138 1    
   142   60  139 1    
   143   61  140 1    
   144   61  141 1    
   145   61  142 1    
   146   63  143 1    
   147   67  144 1    
@<TRIPOS>SUBSTRUCTURE
     1 ****        2 TEMP              0 ****  ****    0 ROOT 
@<TRIPOS>NORMAL
@<TRIPOS>FF_PBC
FORCE_FIELD_SETUP_FEATURE Force Field Setup information
v1.0  0 0.000000 0.000000 0.000000 0.000000 0.000000 0.000000 NONE 0 0 0 0 1 0 0 0 0 0 0 0 0
@<TRIPOS>RENDERING_ATTRS
ANTIALIASED_LINES 
1,2,3,4,5,6,7,8,9,10,11,12,13,14,15,16,17,18,19,20,21,22,23,24,25,26,27,28,29,30,31,32,33,34,35,36,37,38,40,41,42,43,44,45,46,47,48,49,50,51,53,54,55,56,57,58,59,60,61,63,67
