#	Name:			PISM00747
#	Creating user name:	baoopengkun
#	Creation time:		Sat Dec 08 16:29:33 2018

#	Modifying user name:	baoopengkun
#	Modification time:	Sat Dec 08 16:32:44 2018

@<TRIPOS>MOLECULE
PISM00747
   40    41     1     2     0
SMALL
GAST_HUCK


@<TRIPOS>ATOM
      1 C1         -1.9505   31.2925  -23.8499 C.ar      1 <1>        -0.0667 
      2 C2         -2.4277   30.4228  -22.8655 C.ar      1 <1>        -0.0656 
      3 C3         -1.6999   29.2797  -22.5187 C.ar      1 <1>        -0.0256 
      4 C4         -0.4831   28.9993  -23.1556 C.ar      1 <1>         0.1130 
      5 C5         -0.0100   29.8802  -24.1316 C.ar      1 <1>         0.0626 
      6 C6         -0.7374   31.0195  -24.4864 C.ar      1 <1>        -0.0514 
      7 O7          0.2811   27.8621  -22.8516 O.3       1 <1>        -0.3139 
      8 C8         -0.1805   26.8537  -21.9389 C.3       1 <1>         0.0620 
      9 C9          1.3102   29.5819  -24.8036 C.2       1 <1>         0.1369 
     10 C10         1.3253   28.9614  -25.9944 C.2       1 <1>         0.0155 
     11 C11         0.1196   28.5187  -26.7318 C.2       1 <1>         0.1203 
     12 C12         0.1929   27.8352  -28.0890 C.3       1 <1>         0.0192 
     13 C13         1.0061   26.5132  -27.9738 C.3       1 <1>        -0.0564 
     14 C14         0.8597   28.7908  -29.1203 C.3       1 <1>        -0.0564 
     15 C15        -1.2436   27.4904  -28.5872 C.3       1 <1>        -0.0564 
     16 O16        -0.9770   28.7089  -26.2314 O.2       1 <1>        -0.3581 
     17 N17         2.3627   29.9729  -24.1315 N.pl3     1 <1>        -0.1238 
     18 C18         3.6262   29.8587  -24.4312 C.2       1 <1>         0.1493 
     19 N19         4.3428   30.3583  -23.5306 N.2       1 <1>        -0.2811 
     20 C20         3.5308   30.8867  -22.4732 C.2       1 <1>         0.0667 
     21 N21         2.3654   30.6092  -22.9236 N.2       1 <1>        -0.1722 
     22 H1         -2.5202   32.1766  -24.1198 H         1 <1>         0.0541 
     23 H2         -3.3693   30.6369  -22.3685 H         1 <1>         0.0628 
     24 H3         -2.1022   28.6280  -21.7531 H         1 <1>         0.0555 
     25 H4         -0.3602   31.6871  -25.2541 H         1 <1>         0.0635 
     26 H5          0.5794   26.0593  -21.9073 H         1 <1>         0.0583 
     27 H6         -1.1288   26.4142  -22.2847 H         1 <1>         0.0583 
     28 H7         -0.2965   27.2607  -20.9228 H         1 <1>         0.0583 
     29 H8          2.2719   28.7524  -26.4789 H         1 <1>         0.0459 
     30 H9          1.0089   25.9779  -28.9358 H         1 <1>         0.0219 
     31 H10         0.5548   25.8582  -27.2125 H         1 <1>         0.0219 
     32 H11         2.0520   26.7003  -27.6914 H         1 <1>         0.0219 
     33 H12         0.2991   29.7369  -29.1749 H         1 <1>         0.0219 
     34 H13         0.8676   28.3324  -30.1211 H         1 <1>         0.0219 
     35 H14         1.8995   29.0216  -28.8472 H         1 <1>         0.0219 
     36 H15        -1.7451   26.8130  -27.8784 H         1 <1>         0.0219 
     37 H16        -1.2129   26.9967  -29.5707 H         1 <1>         0.0219 
     38 H17        -1.8500   28.4048  -28.6810 H         1 <1>         0.0219 
     39 H18         4.0970   29.4137  -25.3054 H         1 <1>         0.1398 
     40 H19         3.8205   31.3836  -21.5484 H         1 <1>         0.0887 
@<TRIPOS>BOND
     1    2    1 ar   
     2    2    3 ar   
     3    3    4 ar   
     4    4    5 ar   
     5    5    6 ar   
     6    1    6 ar   
     7    4    7 1    
     8    7    8 1    
     9    5    9 1    
    10    9   10 2    
    11   10   11 1    
    12   11   12 1    
    13   12   13 1    
    14   12   14 1    
    15   12   15 1    
    16   11   16 2    
    17    9   17 1    
    18   17   18 1    
    19   18   19 2    
    20   19   20 1    
    21   20   21 2    
    22   17   21 1    
    23    1   22 1    
    24    2   23 1    
    25    3   24 1    
    26    6   25 1    
    27    8   26 1    
    28    8   27 1    
    29    8   28 1    
    30   10   29 1    
    31   13   30 1    
    32   13   31 1    
    33   13   32 1    
    34   14   33 1    
    35   14   34 1    
    36   14   35 1    
    37   15   36 1    
    38   15   37 1    
    39   15   38 1    
    40   18   39 1    
    41   20   40 1    
@<TRIPOS>SUBSTRUCTURE
     1 ****        2 TEMP              0 ****  ****    0 ROOT 
@<TRIPOS>NORMAL
@<TRIPOS>FF_PBC
FORCE_FIELD_SETUP_FEATURE Force Field Setup information
v1.0  0 0.000000 0.000000 0.000000 0.000000 0.000000 0.000000 NONE 0 0 0 0 1 0 0 0 0 0 0 0 0
@<TRIPOS>RENDERING_ATTRS
ANTIALIASED_LINES 
*
