#	Name:			PISM00831.3
#	Creating user name:	baoopengkun
#	Creation time:		Fri Nov 30 18:13:30 2018

#	Modifying user name:	baoopengkun
#	Modification time:	Fri Nov 30 18:21:55 2018

@<TRIPOS>MOLECULE
PISM00831.3
   35    38     1     2     0
SMALL
GAST_HUCK


@<TRIPOS>ATOM
      1 C1        -17.7791    0.5568   11.6478 C.ar      1 <1>        -0.0639 
      2 C2        -17.6244    0.3099   13.0167 C.ar      1 <1>        -0.0754 
      3 C3        -17.5619   -1.0031   13.5016 C.ar      1 <1>        -0.0755 
      4 C4        -17.6578   -2.0908   12.6262 C.ar      1 <1>        -0.0666 
      5 C5        -17.8148   -1.8342   11.2633 C.ar      1 <1>        -0.0356 
      6 C6        -17.8696   -0.5328   10.7802 C.ar      1 <1>        -0.0055 
      7 C7        -18.0193   -0.4906    9.2634 C.3       1 <1>         0.1326 
      8 C8        -17.6593   -1.9663    8.8917 C.3       1 <1>         0.0641 
      9 C9        -17.9417   -2.8488   10.1386 C.3       1 <1>        -0.0036 
     10 O10       -17.0317    0.4081    8.7200 O.3       1 <1>        -0.2594 
     11 C11       -15.9598   -0.3432    8.5211 C.2       1 <1>         0.2795 
     12 C12       -16.1922   -1.7834    8.6456 C.2       1 <1>         0.1489 
     13 O13       -14.8852    0.1644    8.2478 O.2       1 <1>        -0.3569 
     14 N14       -15.3879   -2.7709    8.5759 N.2       1 <1>        -0.1364 
     15 O15       -14.0931   -2.2850    8.3165 O.3       1 <1>        -0.1894 
     16 C16       -13.3151   -2.0946    9.5064 C.3       1 <1>         0.2558 
     17 C17       -13.1838   -3.4047   10.2452 C.2       1 <1>         0.0007 
     18 C18       -11.9086   -3.7843   10.2981 C.2       1 <1>         0.0293 
     19 C19       -11.2049   -2.7170    9.5966 C.2       1 <1>         0.2496 
     20 O20       -11.9681   -1.7311    9.1418 O.3       1 <1>        -0.2288 
     21 C21       -11.3230   -5.0234   10.9184 C.3       1 <1>        -0.0323 
     22 O22        -9.9958   -2.7232    9.4423 O.2       1 <1>        -0.3691 
     23 H1        -17.8262    1.5707   11.2641 H         1 <1>         0.0538 
     24 H2        -17.5518    1.1439   13.7081 H         1 <1>         0.0541 
     25 H3        -17.4383   -1.1790   14.5659 H         1 <1>         0.0541 
     26 H4        -17.6122   -3.1105   12.9943 H         1 <1>         0.0537 
     27 H5        -19.0517   -0.1988    9.0140 H         1 <1>         0.0824 
     28 H6        -18.1417   -2.3295    7.9702 H         1 <1>         0.0540 
     29 H7        -17.2409   -3.6917   10.2433 H         1 <1>         0.0438 
     30 H8        -18.9772   -3.2233   10.1299 H         1 <1>         0.0438 
     31 H9        -13.7539   -1.3147   10.1490 H         1 <1>         0.1229 
     32 H10       -14.0200   -3.9593   10.6690 H         1 <1>         0.0707 
     33 H11       -12.0642   -5.8366   10.9354 H         1 <1>         0.0347 
     34 H12       -11.0068   -4.8013   11.9483 H         1 <1>         0.0347 
     35 H13       -10.4478   -5.3518   10.3377 H         1 <1>         0.0347 
@<TRIPOS>BOND
     1    2    1 ar   
     2    2    3 ar   
     3    3    4 ar   
     4    4    5 ar   
     5    6    5 ar   
     6    1    6 ar   
     7    6    7 1    
     8    7    8 1    
     9    9    8 1    
    10    5    9 1    
    11    7   10 1    
    12   10   11 1    
    13   11   12 1    
    14    8   12 1    
    15   11   13 2    
    16   12   14 2    
    17   14   15 1    
    18   15   16 1    
    19   16   17 1    
    20   17   18 2    
    21   18   19 1    
    22   19   20 1    
    23   16   20 1    
    24   18   21 1    
    25   19   22 2    
    26    1   23 1    
    27    2   24 1    
    28    3   25 1    
    29    4   26 1    
    30    7   27 1    
    31    8   28 1    
    32    9   29 1    
    33    9   30 1    
    34   16   31 1    
    35   17   32 1    
    36   21   33 1    
    37   21   34 1    
    38   21   35 1    
@<TRIPOS>SUBSTRUCTURE
     1 ****        2 TEMP              0 ****  ****    0 ROOT 
@<TRIPOS>NORMAL
@<TRIPOS>FF_PBC
FORCE_FIELD_SETUP_FEATURE Force Field Setup information
v1.0  0 0.000000 0.000000 0.000000 0.000000 0.000000 0.000000 NONE 0 0 0 0 1 0 0 0 0 0 0 0 0
@<TRIPOS>RENDERING_ATTRS
ANTIALIASED_LINES 
*
