#	Name:			PISM00243
#	Creating user name:	14062
#	Creation time:		Tue Jun 18 23:38:17 2019

#	Modifying user name:	14062
#	Modification time:	Tue Jun 18 23:43:51 2019

@<TRIPOS>MOLECULE
PISM00243
   89    92     1     2     0
SMALL
GAST_HUCK


@<TRIPOS>ATOM
      1 C1         -5.9606    4.7386   -3.0126 C.ar      1 <1>        -0.0408 
      2 C2         -6.9414    4.4682   -2.0506 C.ar      1 <1>        -0.0603 
      3 C3         -7.6362    3.2550   -2.0720 C.ar      1 <1>        -0.0686 
      4 C4         -7.3479    2.3017   -3.0520 C.ar      1 <1>        -0.0687 
      5 C5         -6.3607    2.5608   -4.0067 C.ar      1 <1>        -0.0686 
      6 C6         -5.6661    3.7743   -3.9836 C.ar      1 <1>        -0.0603 
      7 C7         -5.2165    6.0806   -3.0021 C.3       1 <1>         0.0039 
      8 C8         -3.8948    5.9472   -2.2038 C.3       1 <1>         0.0482 
      9 N9         -3.2150    7.2335   -2.0902 N.am      1 <1>        -0.2830 
     10 C10        -1.8443    7.2863   -1.7421 C.ar      1 <1>         0.1620 
     11 N11        -1.1333    6.1559   -1.5812 N.ar      1 <1>        -0.2561 
     12 C12         0.1931    6.2504   -1.3656 C.ar      1 <1>         0.1618 
     13 N13         0.8299    7.4330   -1.4800 N.ar      1 <1>        -0.2514 
     14 C14         0.0819    8.5508   -1.5530 C.ar      1 <1>         0.1846 
     15 N15        -1.2612    8.4866   -1.5848 N.ar      1 <1>        -0.2514 
     16 N16         0.9195    5.0900   -0.9994 N.am      1 <1>        -0.2847 
     17 C17         0.2138    3.8147   -0.8802 C.3       1 <1>         0.0416 
     18 C18         0.9866    2.7225   -0.0848 C.3       1 <1>        -0.0181 
     19 C19         2.2239    2.1987   -0.8676 C.3       1 <1>        -0.0479 
     20 C20         2.9724    1.1111   -0.0516 C.3       1 <1>        -0.0501 
     21 C21         2.0297   -0.0785    0.2792 C.3       1 <1>        -0.0439 
     22 C22         0.7903    0.4383    1.0580 C.3       1 <1>        -0.0501 
     23 C23         0.0456    1.5282    0.2454 C.3       1 <1>        -0.0479 
     24 C24         2.7770   -1.1680    1.0960 C.3       1 <1>        -0.0624 
     25 N25         0.6750    9.8318   -1.6127 N.am      1 <1>        -0.2351 
     26 C26         1.6023   10.1456   -2.6363 C.ar      1 <1>         0.0813 
     27 C27         1.2314   11.0502   -3.6334 C.ar      1 <1>        -0.0175 
     28 C28         2.0607   11.2937   -4.7331 C.ar      1 <1>         0.0383 
     29 C29         3.3476   10.7398   -4.7374 C.ar      1 <1>        -0.0557 
     30 C30         3.7477    9.8773   -3.7087 C.ar      1 <1>        -0.0679 
     31 C31         2.8672    9.5552   -2.6694 C.ar      1 <1>        -0.0329 
     32 C32         1.4884   12.1128   -5.8749 C.2       1 <1>         0.2019 
     33 O33         0.2726   12.1437   -5.9666 O.2       1 <1>        -0.3847 
     34 N34         2.2547   12.7686   -6.7777 N.am      1 <1>        -0.2841 
     35 C35         1.6148   13.3399   -7.9669 C.3       1 <1>         0.0538 
     36 C36         1.3970   12.1759   -8.9658 C.3       1 <1>         0.0678 
     37 O37         0.4456   12.5303   -9.9911 O.3       1 <1>        -0.3755 
     38 C38         0.2191   11.4517  -10.9257 C.3       1 <1>         0.0711 
     39 C39        -1.0379   11.7377  -11.7734 C.3       1 <1>         0.0711 
     40 O40        -1.2507   10.5725  -12.5960 O.3       1 <1>        -0.3763 
     41 C41        -2.4814   10.6010  -13.3444 C.3       1 <1>         0.0600 
     42 C42        -2.5724    9.2840  -14.1530 C.3       1 <1>         0.0166 
     43 N43        -3.8763    9.1801  -14.8436 N.3       1 <1>        -0.3279 
     44 H1         -7.1682    5.1989   -1.2801 H         1 <1>         0.0557 
     45 H2         -8.3990    3.0532   -1.3257 H         1 <1>         0.0599 
     46 H3         -7.8906    1.3622   -3.0723 H         1 <1>         0.0559 
     47 H4         -6.1319    1.8189   -4.7660 H         1 <1>         0.0599 
     48 H5         -4.8955    3.9626   -4.7247 H         1 <1>         0.0557 
     49 H6         -5.8548    6.8519   -2.5429 H         1 <1>         0.0449 
     50 H7         -4.9962    6.4004   -4.0337 H         1 <1>         0.0449 
     51 H8         -3.2461    5.2164   -2.7154 H         1 <1>         0.0578 
     52 H9         -4.1101    5.5695   -1.1907 H         1 <1>         0.0578 
     53 H10        -3.7199    8.0891   -2.2149 H         1 <1>         0.2038 
     54 H11         1.9022    5.1556   -0.8284 H         1 <1>         0.2036 
     55 H12        -0.0329    3.4444   -1.8885 H         1 <1>         0.0558 
     56 H13        -0.7353    3.9995   -0.3499 H         1 <1>         0.0558 
     57 H14         1.3215    3.1765    0.8636 H         1 <1>         0.0323 
     58 H15         2.9261    3.0179   -1.0865 H         1 <1>         0.0269 
     59 H16         1.8980    1.7699   -1.8290 H         1 <1>         0.0269 
     60 H17         3.3541    1.5553    0.8825 H         1 <1>         0.0268 
     61 H18         3.8369    0.7501   -0.6336 H         1 <1>         0.0268 
     62 H19         1.6886   -0.5341   -0.6675 H         1 <1>         0.0298 
     63 H20         1.1068    0.8591    2.0261 H         1 <1>         0.0268 
     64 H21         0.0994   -0.3974    1.2587 H         1 <1>         0.0268 
     65 H22        -0.8164    1.8728    0.8411 H         1 <1>         0.0269 
     66 H23        -0.3404    1.0901   -0.6898 H         1 <1>         0.0269 
     67 H24         3.6438   -1.5470    0.5320 H         1 <1>         0.0232 
     68 H25         2.1056   -2.0150    1.3078 H         1 <1>         0.0232 
     69 H26         3.1337   -0.7565    2.0523 H         1 <1>         0.0232 
     70 H27         0.2225   10.5679   -1.1139 H         1 <1>         0.2408 
     71 H28         0.2736   11.5541   -3.5498 H         1 <1>         0.0571 
     72 H29         4.0436   10.9546   -5.5398 H         1 <1>         0.0552 
     73 H30         4.7451    9.4479   -3.7198 H         1 <1>         0.0593 
     74 H31         3.1601    8.8558   -1.8945 H         1 <1>         0.0555 
     75 H32         3.2508   12.8149   -6.7054 H         1 <1>         0.1846 
     76 H33         2.2347   14.1205   -8.4358 H         1 <1>         0.0542 
     77 H34         0.6428   13.7985   -7.7233 H         1 <1>         0.0542 
     78 H35         0.9946   11.3198   -8.4005 H         1 <1>         0.0580 
     79 H36         2.3688   11.8856   -9.3976 H         1 <1>         0.0580 
     80 H37         0.0300   10.4936  -10.4110 H         1 <1>         0.0583 
     81 H38         1.0931   11.3275  -11.5854 H         1 <1>         0.0583 
     82 H39        -0.8851   12.6440  -12.3802 H         1 <1>         0.0583 
     83 H40        -1.8810   11.9065  -11.0839 H         1 <1>         0.0583 
     84 H41        -2.5071   11.4614  -14.0326 H         1 <1>         0.0572 
     85 H42        -3.3495   10.6505  -12.6664 H         1 <1>         0.0572 
     86 H43        -2.4693    8.4435  -13.4458 H         1 <1>         0.0444 
     87 H44        -1.7355    9.2376  -14.8703 H         1 <1>         0.0444 
     88 H45        -3.9731    8.2217  -15.3365 H         1 <1>         0.1183 
     89 H46        -3.9905    9.9713  -15.5725 H         1 <1>         0.1183 
@<TRIPOS>BOND
     1    2    1 ar   
     2    2    3 ar   
     3    3    4 ar   
     4    4    5 ar   
     5    5    6 ar   
     6    1    6 ar   
     7    1    7 1    
     8    7    8 1    
     9    8    9 1    
    10    9   10 1    
    11   10   11 ar   
    12   11   12 ar   
    13   12   13 ar   
    14   13   14 ar   
    15   14   15 ar   
    16   10   15 ar   
    17   12   16 1    
    18   16   17 1    
    19   17   18 1    
    20   18   19 1    
    21   19   20 1    
    22   20   21 1    
    23   21   22 1    
    24   22   23 1    
    25   18   23 1    
    26   21   24 1    
    27   14   25 1    
    28   25   26 1    
    29   26   27 ar   
    30   27   28 ar   
    31   28   29 ar   
    32   29   30 ar   
    33   30   31 ar   
    34   26   31 ar   
    35   28   32 1    
    36   32   33 2    
    37   32   34 am   
    38   34   35 1    
    39   35   36 1    
    40   36   37 1    
    41   37   38 1    
    42   38   39 1    
    43   39   40 1    
    44   40   41 1    
    45   41   42 1    
    46   42   43 1    
    47    2   44 1    
    48    3   45 1    
    49    4   46 1    
    50    5   47 1    
    51    6   48 1    
    52    7   49 1    
    53    7   50 1    
    54    8   51 1    
    55    8   52 1    
    56    9   53 1    
    57   16   54 1    
    58   17   55 1    
    59   17   56 1    
    60   18   57 1    
    61   19   58 1    
    62   19   59 1    
    63   20   60 1    
    64   20   61 1    
    65   21   62 1    
    66   22   63 1    
    67   22   64 1    
    68   23   65 1    
    69   23   66 1    
    70   24   67 1    
    71   24   68 1    
    72   24   69 1    
    73   25   70 1    
    74   27   71 1    
    75   29   72 1    
    76   30   73 1    
    77   31   74 1    
    78   34   75 1    
    79   35   76 1    
    80   35   77 1    
    81   36   78 1    
    82   36   79 1    
    83   38   80 1    
    84   38   81 1    
    85   39   82 1    
    86   39   83 1    
    87   41   84 1    
    88   41   85 1    
    89   42   86 1    
    90   42   87 1    
    91   43   88 1    
    92   43   89 1    
@<TRIPOS>SUBSTRUCTURE
     1 ****        2 TEMP              0 ****  ****    0 ROOT 
@<TRIPOS>NORMAL
@<TRIPOS>FF_PBC
FORCE_FIELD_SETUP_FEATURE Force Field Setup information
v1.0  0 0.000000 0.000000 0.000000 0.000000 0.000000 0.000000 NONE 0 0 0 0 1 0 0 0 0 0 0 0 0
@<TRIPOS>RENDERING_ATTRS
ANTIALIASED_LINES 
*
