#	Name:			PISM00834
#	Creating user name:	baoopengkun
#	Creation time:		Fri Nov 30 18:47:00 2018

#	Modifying user name:	baoopengkun
#	Modification time:	Fri Nov 30 18:54:01 2018

@<TRIPOS>MOLECULE
PISM00834
   32    33     1     2     0
SMALL
GAST_HUCK


@<TRIPOS>ATOM
      1 C1        -10.6590   -1.7810   19.8852 C.ar      1 <1>        -0.0620 
      2 C2        -12.0346   -1.9726   19.7271 C.ar      1 <1>        -0.0537 
      3 C3        -12.5315   -2.6367   18.6004 C.ar      1 <1>        -0.0037 
      4 C4        -11.6324   -3.1621   17.6652 C.ar      1 <1>        -0.0537 
      5 C5        -10.2578   -2.9536   17.8092 C.ar      1 <1>        -0.0620 
      6 C6         -9.7698   -2.2580   18.9184 C.ar      1 <1>        -0.0626 
      7 C7        -14.0290   -2.7732   18.3979 C.2       1 <1>         0.0701 
      8 C8        -14.9036   -3.2978   19.5108 C.3       1 <1>         0.0408 
      9 N9        -14.3276   -4.5152   20.1262 N.3       1 <1>        -0.3189 
     10 N10       -14.6183   -2.4434   17.3121 N.2       1 <1>        -0.1613 
     11 O11       -13.6634   -1.9173   16.4230 O.3       1 <1>        -0.1992 
     12 C12       -13.5825   -0.4881   16.4568 C.3       1 <1>         0.2531 
     13 O13       -13.4082   -0.0057   17.8062 O.3       1 <1>        -0.2292 
     14 C14       -12.1713    0.4711   17.8501 C.2       1 <1>         0.2496 
     15 C15       -11.4367    0.4231   16.5918 C.2       1 <1>         0.0293 
     16 C16       -12.3039   -0.1259   15.7431 C.2       1 <1>         0.0004 
     17 C17       -10.0368    0.9000   16.3201 C.3       1 <1>        -0.0323 
     18 O18       -11.6934    0.9304   18.8733 O.2       1 <1>        -0.3691 
     19 H1        -10.2816   -1.2563   20.7575 H         1 <1>         0.0615 
     20 H2        -12.7148   -1.5895   20.4800 H         1 <1>         0.0618 
     21 H3        -12.0003   -3.7382   16.8222 H         1 <1>         0.0618 
     22 H4         -9.5695   -3.3336   17.0606 H         1 <1>         0.0615 
     23 H5         -8.7031   -2.0897   19.0299 H         1 <1>         0.0611 
     24 H6        -15.8915   -3.5552   19.0936 H         1 <1>         0.0589 
     25 H7        -15.0487   -2.5015   20.2586 H         1 <1>         0.0589 
     26 H8        -15.0004   -4.9246   20.8690 H         1 <1>         0.1207 
     27 H9        -13.3733   -4.3026   20.5889 H         1 <1>         0.1207 
     28 H10       -14.4785   -0.0381   16.0020 H         1 <1>         0.1224 
     29 H11       -12.1152   -0.3085   14.6862 H         1 <1>         0.0707 
     30 H12        -9.7293    1.6267   17.0870 H         1 <1>         0.0347 
     31 H13        -9.9800    1.3788   15.3311 H         1 <1>         0.0347 
     32 H14        -9.3510    0.0401   16.3466 H         1 <1>         0.0347 
@<TRIPOS>BOND
     1    2    1 ar   
     2    2    3 ar   
     3    3    4 ar   
     4    4    5 ar   
     5    5    6 ar   
     6    1    6 ar   
     7    3    7 1    
     8    7    8 1    
     9    8    9 1    
    10    7   10 2    
    11   10   11 1    
    12   11   12 1    
    13   12   13 1    
    14   13   14 1    
    15   14   15 1    
    16   15   16 2    
    17   12   16 1    
    18   15   17 1    
    19   14   18 2    
    20    1   19 1    
    21    2   20 1    
    22    4   21 1    
    23    5   22 1    
    24    6   23 1    
    25    8   24 1    
    26    8   25 1    
    27    9   26 1    
    28    9   27 1    
    29   12   28 1    
    30   16   29 1    
    31   17   30 1    
    32   17   31 1    
    33   17   32 1    
@<TRIPOS>SUBSTRUCTURE
     1 ****        2 TEMP              0 ****  ****    0 ROOT 
@<TRIPOS>NORMAL
@<TRIPOS>FF_PBC
FORCE_FIELD_SETUP_FEATURE Force Field Setup information
v1.0  0 0.000000 0.000000 0.000000 0.000000 0.000000 0.000000 NONE 0 0 0 0 1 0 0 0 0 0 0 0 0
@<TRIPOS>RENDERING_ATTRS
ANTIALIASED_LINES 
*
