#	Name:			PISM00943
#	Creating user name:	baoopengkun
#	Creation time:		Wed Dec 12 22:41:34 2018

#	Modifying user name:	baoopengkun
#	Modification time:	Wed Dec 12 23:15:41 2018

@<TRIPOS>MOLECULE
PISM00943
   17    17     1     2     0
SMALL
GAST_HUCK


@<TRIPOS>ATOM
      1 C1          4.4204   -4.3038    6.0117 C.3       1 <1>        -0.0292 
      2 C2          3.4335   -5.4393    6.0567 C.2       1 <1>         0.0383 
      3 C3          3.5602   -6.6263    6.6483 C.2       1 <1>         0.0026 
      4 C4          2.2878   -7.3084    6.3575 C.2       1 <1>         0.1130 
      5 O5          1.4051   -6.6147    5.6317 O.3       1 <1>        -0.2217 
      6 C6          2.0972   -5.4885    5.4517 C.2       1 <1>         0.2698 
      7 C7          4.7293   -7.1595    7.4342 C.3       1 <1>        -0.0307 
      8 C8          1.9865   -8.5435    6.7714 C.2       1 <1>        -0.0761 
      9 O9          1.6390   -4.5533    4.8174 O.2       1 <1>        -0.3589 
     10 H1          4.6654   -3.9805    7.0343 H         1 <1>         0.0369 
     11 H2          3.9952   -3.4500    5.4630 H         1 <1>         0.0369 
     12 H3          5.3398   -4.6296    5.5029 H         1 <1>         0.0369 
     13 H4          5.0859   -8.0926    6.9733 H         1 <1>         0.0378 
     14 H5          4.4107   -7.3673    8.4665 H         1 <1>         0.0378 
     15 H6          5.5616   -6.4411    7.4603 H         1 <1>         0.0378 
     16 H7          2.6825   -9.1347    7.3646 H         1 <1>         0.0343 
     17 H8          1.0225   -8.9830    6.5161 H         1 <1>         0.0343 
@<TRIPOS>BOND
     1    2    1 1    
     2    2    3 2    
     3    3    4 1    
     4    4    5 1    
     5    5    6 1    
     6    2    6 1    
     7    3    7 1    
     8    4    8 2    
     9    6    9 2    
    10    1   10 1    
    11    1   11 1    
    12    1   12 1    
    13    7   13 1    
    14    7   14 1    
    15    7   15 1    
    16    8   16 1    
    17    8   17 1    
@<TRIPOS>SUBSTRUCTURE
     1 ****        2 TEMP              0 ****  ****    0 ROOT 
@<TRIPOS>NORMAL
@<TRIPOS>FF_PBC
FORCE_FIELD_SETUP_FEATURE Force Field Setup information
v1.0  0 0.000000 0.000000 0.000000 0.000000 0.000000 0.000000 NONE 0 0 0 0 1 0 0 0 0 0 0 0 0
@<TRIPOS>RENDERING_ATTRS
ANTIALIASED_LINES 
1,2,3,4,5,6,7,8,9
