#	Name:			PISM00121
#	Creating user name:	baoopengkun
#	Creation time:		Mon Dec 17 14:54:00 2018

#	Modifying user name:	baoopengkun
#	Modification time:	Mon Dec 17 14:56:10 2018

@<TRIPOS>MOLECULE
PISM00121
   26    28     1     1     0
SMALL
GAST_HUCK


@<TRIPOS>ATOM
      1 C1         20.0428    6.1205    7.1614 C.3       1 <1>         0.0719 
      2 C2         19.0866    5.2615    8.0249 C.3       1 <1>        -0.0250 
      3 C3         19.1251    5.9981    9.3894 C.3       1 <1>        -0.0250 
      4 C4         20.1084    7.1599    9.1061 C.3       1 <1>         0.0719 
      5 C5         21.5776    6.6947    8.9305 C.3       1 <1>         0.1052 
      6 C6         21.5335    5.9754    7.5635 C.3       1 <1>         0.1052 
      7 C7         22.3318    6.9186    6.7056 C.2       1 <1>         0.2915 
      8 O8         22.7889    7.9964    7.3336 O.3       1 <1>        -0.1670 
      9 C9         22.4057    7.9067    8.6023 C.2       1 <1>         0.2915 
     10 O10        22.7188    8.7404    9.4354 O.2       1 <1>        -0.3051 
     11 O11        22.5590    6.7098    5.5258 O.2       1 <1>        -0.3051 
     12 O12        19.7779    7.4007    7.7374 O.3       1 <1>        -0.3750 
     13 H13        19.8613    6.0448    6.0764 H         1 <1>         0.0585 
     14 H14        19.9886    8.0249    9.7795 H         1 <1>         0.0585 
     15 C15        22.1282    4.5435    7.4749 C.3       1 <1>        -0.0498 
     16 C16        22.1975    5.9320   10.1329 C.3       1 <1>        -0.0498 
     17 H1         19.3749    4.2027    8.0848 H         1 <1>         0.0289 
     18 H2         18.0737    5.3145    7.5907 H         1 <1>         0.0289 
     19 H3         19.4234    5.3589   10.2322 H         1 <1>         0.0289 
     20 H4         18.1344    6.4252    9.6205 H         1 <1>         0.0289 
     21 H5         23.2106    4.5745    7.6724 H         1 <1>         0.0220 
     22 H6         21.9731    4.1501    6.4587 H         1 <1>         0.0220 
     23 H7         21.6711    3.8458    8.1887 H         1 <1>         0.0220 
     24 H8         21.7146    4.9636   10.3183 H         1 <1>         0.0220 
     25 H9         22.1002    6.5474   11.0403 H         1 <1>         0.0220 
     26 H10        23.2677    5.7511    9.9506 H         1 <1>         0.0220 
@<TRIPOS>BOND
     1    2    1 1    
     2    2    3 1    
     3    3    4 1    
     4    4    5 1    
     5    5    6 1    
     6    1    6 1    
     7    6    7 1    
     8    7    8 1    
     9    8    9 1    
    10    5    9 1    
    11    9   10 2    
    12    7   11 2    
    13    1   12 1    
    14    4   12 1    
    15    1   13 1    
    16    4   14 1    
    17    6   15 1    
    18    5   16 1    
    19    2   17 1    
    20    2   18 1    
    21    3   19 1    
    22    3   20 1    
    23   15   21 1    
    24   15   22 1    
    25   15   23 1    
    26   16   24 1    
    27   16   25 1    
    28   16   26 1    
@<TRIPOS>SUBSTRUCTURE
     1 ****        2 TEMP              0 ****  ****    0 ROOT 
@<TRIPOS>NORMAL
@<TRIPOS>FF_PBC
FORCE_FIELD_SETUP_FEATURE Force Field Setup information
v1.0  0 0.000000 0.000000 0.000000 0.000000 0.000000 0.000000 NONE 0 0 0 0 1 0 0 0 0 0 0 0 0
