#	Name:			PISM00623
#	Creating user name:	baoopengkun
#	Creation time:		Mon Dec 10 11:19:34 2018

#	Modifying user name:	baoopengkun
#	Modification time:	Mon Dec 10 11:19:47 2018

@<TRIPOS>MOLECULE
PISM00623
   57    60     1     2     0
SMALL
GAST_HUCK


@<TRIPOS>ATOM
      1 C1         13.4040    0.3202  -30.3949 C.ar      1 <1>        -0.0348 
      2 C2         13.1228   -0.9275  -29.8322 C.ar      1 <1>        -0.0180 
      3 C3         12.3300   -1.8444  -30.5269 C.ar      1 <1>         0.0714 
      4 C4         11.7734   -1.4929  -31.7595 C.ar      1 <1>        -0.0180 
      5 C5         12.0511   -0.2426  -32.3195 C.ar      1 <1>        -0.0348 
      6 C6         12.9068    0.6467  -31.6607 C.ar      1 <1>         0.0068 
      7 C7         13.2975    1.9718  -32.3267 C.3       1 <1>         0.1921 
      8 C8         12.2094    3.0272  -32.0320 C.3       1 <1>         0.1073 
      9 N9         11.9192    3.0737  -30.6054 N.pl3     1 <1>        -0.1814 
     10 N10        12.4833    3.9071  -29.6870 N.2       1 <1>        -0.1908 
     11 C11        12.0199    3.7413  -28.5043 C.2       1 <1>         0.0618 
     12 N12        11.0601    2.6968  -28.7349 N.2       1 <1>        -0.2870 
     13 C13        11.0501    2.3697  -29.9459 C.2       1 <1>         0.1270 
     14 O14        14.5984    2.4319  -31.9348 O.3       1 <1>        -0.3814 
     15 C15        15.5442    1.5838  -32.5917 C.3       1 <1>         0.0672 
     16 C16        14.8375    1.3268  -33.9457 C.3       1 <1>         0.1000 
     17 O17        13.4970    1.8074  -33.7387 O.3       1 <1>        -0.3758 
     18 C18        14.8846   -0.1621  -34.3796 C.3       1 <1>         0.0952 
     19 O19        14.3772   -0.9987  -33.3286 O.3       1 <1>        -0.3192 
     20 C20        14.3807   -2.3736  -33.5588 C.ar      1 <1>         0.1198 
     21 C21        13.4760   -2.9298  -34.4671 C.ar      1 <1>        -0.0415 
     22 C22        13.4837   -4.3062  -34.7055 C.ar      1 <1>        -0.0819 
     23 C23        14.3870   -5.1225  -34.0198 C.ar      1 <1>        -0.0819 
     24 C24        15.2811   -4.5670  -33.0991 C.ar      1 <1>        -0.0415 
     25 C25        15.2837   -3.1852  -32.8642 C.ar      1 <1>         0.1197 
     26 O26        16.1642   -2.5824  -31.9525 O.3       1 <1>        -0.3215 
     27 C27        16.9600   -3.3438  -31.0297 C.3       1 <1>         0.0702 
     28 C28        17.7177   -2.3562  -30.1015 C.3       1 <1>        -0.0192 
     29 Cl29       12.0334   -3.4334  -29.8530 Cl        1 <1>        -0.0420 
     30 H1         14.0097    1.0375  -29.8492 H         1 <1>         0.0849 
     31 H2         13.5196   -1.1863  -28.8561 H         1 <1>         0.0703 
     32 H3         11.1303   -2.1930  -32.2823 H         1 <1>         0.0703 
     33 H4         11.6130    0.0334  -33.2730 H         1 <1>         0.0849 
     34 H5         11.2988    2.7766  -32.5970 H         1 <1>         0.0595 
     35 H6         12.5701    4.0106  -32.3676 H         1 <1>         0.0595 
     36 H7         12.2820    4.2539  -27.5800 H         1 <1>         0.0863 
     37 H8         10.3988    1.6021  -30.3626 H         1 <1>         0.1361 
     38 H9         15.6718    0.6573  -32.0115 H         1 <1>         0.0576 
     39 H10        16.5229    2.0783  -32.6881 H         1 <1>         0.0576 
     40 H11        15.2712    1.9612  -34.7364 H         1 <1>         0.0635 
     41 H12        15.9282   -0.4441  -34.5942 H         1 <1>         0.0635 
     42 H13        14.2836   -0.2790  -35.2947 H         1 <1>         0.0635 
     43 H14        12.7656   -2.2929  -34.9832 H         1 <1>         0.0509 
     44 H15        12.7903   -4.7397  -35.4198 H         1 <1>         0.0495 
     45 H16        14.3933   -6.1928  -34.2040 H         1 <1>         0.0495 
     46 H17        15.9625   -5.2311  -32.5819 H         1 <1>         0.0509 
     47 C47        18.6493   -3.1240  -29.1241 C.3       1 <1>        -0.0602 
     48 C48        16.7167   -1.4700  -29.3108 C.3       1 <1>        -0.0602 
     49 H18        17.6933   -3.9537  -31.5814 H         1 <1>         0.0612 
     50 H19        16.3148   -3.9983  -30.4218 H         1 <1>         0.0612 
     51 H20        18.3378   -1.6984  -30.7364 H         1 <1>         0.0321 
     52 H21        19.2045   -2.4164  -28.4887 H         1 <1>         0.0233 
     53 H22        19.3782   -3.7315  -29.6827 H         1 <1>         0.0233 
     54 H23        18.0607   -3.7906  -28.4750 H         1 <1>         0.0233 
     55 H24        16.0767   -0.9031  -30.0029 H         1 <1>         0.0233 
     56 H25        17.2573   -0.7512  -28.6758 H         1 <1>         0.0233 
     57 H26        16.0748   -2.0925  -28.6692 H         1 <1>         0.0233 
@<TRIPOS>BOND
     1    2    1 ar   
     2    2    3 ar   
     3    3    4 ar   
     4    4    5 ar   
     5    5    6 ar   
     6    1    6 ar   
     7    6    7 1    
     8    7    8 1    
     9    8    9 1    
    10    9   10 1    
    11   10   11 2    
    12   11   12 1    
    13   12   13 2    
    14    9   13 1    
    15    7   14 1    
    16   14   15 1    
    17   15   16 1    
    18   16   17 1    
    19    7   17 1    
    20   16   18 1    
    21   18   19 1    
    22   19   20 1    
    23   20   21 ar   
    24   21   22 ar   
    25   22   23 ar   
    26   23   24 ar   
    27   24   25 ar   
    28   20   25 ar   
    29   25   26 1    
    30   26   27 1    
    31   27   28 1    
    32    3   29 1    
    33    1   30 1    
    34    2   31 1    
    35    4   32 1    
    36    5   33 1    
    37    8   34 1    
    38    8   35 1    
    39   11   36 1    
    40   13   37 1    
    41   15   38 1    
    42   15   39 1    
    43   16   40 1    
    44   18   41 1    
    45   18   42 1    
    46   21   43 1    
    47   22   44 1    
    48   23   45 1    
    49   24   46 1    
    50   28   47 1    
    51   28   48 1    
    52   27   49 1    
    53   27   50 1    
    54   28   51 1    
    55   47   52 1    
    56   47   53 1    
    57   47   54 1    
    58   48   55 1    
    59   48   56 1    
    60   48   57 1    
@<TRIPOS>SUBSTRUCTURE
     1 ****        2 TEMP              0 ****  ****    0 ROOT 
@<TRIPOS>NORMAL
@<TRIPOS>FF_PBC
FORCE_FIELD_SETUP_FEATURE Force Field Setup information
v1.0  0 0.000000 0.000000 0.000000 0.000000 0.000000 0.000000 NONE 0 0 0 0 1 0 0 0 0 0 0 0 0
@<TRIPOS>RENDERING_ATTRS
ANTIALIASED_LINES 
*
