#	Name:			PISM00816.1
#	Creating user name:	baoopengkun
#	Creation time:		Wed Jan 09 15:31:58 2019

#	Modifying user name:	baoopengkun
#	Modification time:	Wed Jan 09 15:32:42 2019

@<TRIPOS>MOLECULE
PISM00816.1
   34    35     1     2     0
SMALL
GAST_HUCK


@<TRIPOS>ATOM
      1 C1          6.3144    0.0222    2.1628 C.ar      1 <1>        -0.0646 
      2 C2          6.8477    1.2758    1.8496 C.ar      1 <1>        -0.0689 
      3 C3          6.6567    1.8167    0.5752 C.ar      1 <1>        -0.0551 
      4 C4          5.9430    1.0973   -0.3869 C.ar      1 <1>         0.0330 
      5 C5          5.4230   -0.1621   -0.0765 C.ar      1 <1>        -0.0508 
      6 C6          5.5940   -0.6993    1.2045 C.ar      1 <1>        -0.0282 
      7 Cl7         5.7022    1.7732   -1.9849 Cl        1 <1>        -0.0727 
      8 C8          5.0227   -2.0511    1.5782 C.2       1 <1>         0.0835 
      9 C9          5.8209   -3.0191    2.3636 C.2       1 <1>         0.2398 
     10 O10         7.0835   -3.3672    2.0553 O.3       1 <1>        -0.2865 
     11 C11         7.6403   -2.8233    0.8425 C.3       1 <1>         0.0638 
     12 O12         5.2916   -3.5522    3.3239 O.2       1 <1>        -0.3770 
     13 C13         3.7735   -2.3887    1.2317 C.2       1 <1>         0.1066 
     14 O14         3.0087   -1.5207    0.5518 O.3       1 <1>        -0.2489 
     15 C15         1.7007   -2.0142    0.2089 C.3       1 <1>         0.2459 
     16 C16         1.7923   -3.1262   -0.8126 C.2       1 <1>         0.0005 
     17 C17         1.2521   -2.7468   -1.9689 C.2       1 <1>         0.0294 
     18 C18         0.7953   -1.3885   -1.7016 C.2       1 <1>         0.2497 
     19 O19         1.0137   -0.9447   -0.4704 O.3       1 <1>        -0.2292 
     20 C20         1.1458   -3.5282   -3.2501 C.3       1 <1>        -0.0323 
     21 O21         0.2424   -0.7048   -2.5456 O.2       1 <1>        -0.3691 
     22 H1          6.4605   -0.3897    3.1567 H         1 <1>         0.0555 
     23 H2          7.4089    1.8296    2.5962 H         1 <1>         0.0598 
     24 H24         7.0616    2.7934    0.3310 H         1 <1>         0.0562 
     25 H4          4.8951   -0.7184   -0.8432 H         1 <1>         0.0560 
     26 H5          8.5839   -3.3602    0.6660 H         1 <1>         0.0574 
     27 H6          7.8899   -1.7574    0.9360 H         1 <1>         0.0574 
     28 H7          6.9891   -2.9882   -0.0306 H         1 <1>         0.0574 
     29 H8          3.4183   -3.3775    1.5344 H         1 <1>         0.1337 
     30 H9          1.1108   -2.3051    1.0949 H         1 <1>         0.1227 
     31 H10         2.2398   -4.1041   -0.6400 H         1 <1>         0.0707 
     32 H11         2.0822   -4.0737   -3.4404 H         1 <1>         0.0347 
     33 H12         0.9527   -2.8486   -4.0937 H         1 <1>         0.0347 
     34 H13         0.3175   -4.2479   -3.1736 H         1 <1>         0.0347 
@<TRIPOS>BOND
     1    2    1 ar   
     2    2    3 ar   
     3    3    4 ar   
     4    4    5 ar   
     5    5    6 ar   
     6    1    6 ar   
     7    4    7 1    
     8    6    8 1    
     9    8    9 1    
    10    9   10 1    
    11   10   11 1    
    12    9   12 2    
    13    8   13 2    
    14   13   14 1    
    15   14   15 1    
    16   15   16 1    
    17   16   17 2    
    18   17   18 1    
    19   18   19 1    
    20   15   19 1    
    21   17   20 1    
    22   18   21 2    
    23    1   22 1    
    24    2   23 1    
    25    3   24 1    
    26    5   25 1    
    27   11   26 1    
    28   11   27 1    
    29   11   28 1    
    30   13   29 1    
    31   15   30 1    
    32   16   31 1    
    33   20   32 1    
    34   20   33 1    
    35   20   34 1    
@<TRIPOS>SUBSTRUCTURE
     1 ****        2 TEMP              0 ****  ****    0 ROOT 
@<TRIPOS>NORMAL
@<TRIPOS>FF_PBC
FORCE_FIELD_SETUP_FEATURE Force Field Setup information
v1.0  0 0.000000 0.000000 0.000000 0.000000 0.000000 0.000000 NONE 0 0 0 0 1 0 0 0 0 0 0 0 0
@<TRIPOS>RENDERING_ATTRS
ANTIALIASED_LINES 
*
