#	Name:			PISM00675
#	Creating user name:	baoopengkun
#	Creation time:		Mon Dec 10 10:41:31 2018

#	Modifying user name:	baoopengkun
#	Modification time:	Mon Dec 10 10:41:49 2018

@<TRIPOS>MOLECULE
PISM00675
   44    45     1     2     0
SMALL
GAST_HUCK


@<TRIPOS>ATOM
      1 O1        -10.1261   24.0900  -19.2431 O.3       1 PHENYL     -0.3179 
      2 C          -9.3143   25.1988  -19.0065 C.ar      1 PHENYL      0.0911 
      3 C          -8.0835   25.3124  -19.6580 C.ar      1 PHENYL     -0.0331 
      4 C          -7.2615   26.4164  -19.4127 C.ar      1 PHENYL     -0.0706 
      5 C          -7.6738   27.4079  -18.5170 C.ar      1 PHENYL     -0.0729 
      6 C          -8.9088   27.2978  -17.8706 C.ar      1 PHENYL     -0.0706 
      7 C          -9.7306   26.1942  -18.1185 C.ar      1 PHENYL     -0.0331 
      8 C8         -9.9329   23.0207  -18.3022 C.3       1 PHENYL      0.0735 
      9 C9        -10.8699   21.8506  -18.7026 C.3       1 PHENYL      0.0104 
     10 C10       -10.7601   20.6472  -17.7177 C.3       1 PHENYL      0.1153 
     11 C11       -11.8562   19.5377  -17.8791 C.3       1 PHENYL      0.0927 
     12 C12       -11.6730   18.4165  -18.9676 C.3       1 PHENYL     -0.0087 
     13 C13       -13.0153   17.6198  -19.0518 C.3       1 PHENYL     -0.0576 
     14 C14       -10.5508   17.3960  -18.6010 C.3       1 PHENYL     -0.0576 
     15 C15       -11.3739   18.9909  -20.3820 C.3       1 PHENYL     -0.0576 
     16 O16       -12.0403   18.8530  -16.6192 O.3       1 PHENYL     -0.3880 
     17 N17        -9.4071   20.1159  -17.6874 N.pl3     1 PHENYL     -0.1725 
     18 C18        -8.8296   19.4812  -16.7129 C.2       1 PHENYL      0.1282 
     19 N19        -7.6430   19.2111  -17.0186 N.2       1 PHENYL     -0.2870 
     20 C20        -7.3370   19.7029  -18.3337 C.2       1 PHENYL      0.0618 
     21 N21        -8.4567   20.2349  -18.6571 N.2       1 PHENYL     -0.1898 
     22 H1         -7.7713   24.5398  -20.3527 H         1 PHENYL      0.0542 
     23 H2         -6.3042   26.5035  -19.9174 H         1 PHENYL      0.0589 
     24 H3         -7.0345   28.2639  -18.3237 H         1 PHENYL      0.0523 
     25 H4         -9.2296   28.0687  -17.1766 H         1 PHENYL      0.0589 
     26 H5        -10.6923   26.1054  -17.6245 H         1 PHENYL      0.0542 
     27 H6        -10.1753   23.3766  -17.2873 H         1 PHENYL      0.0615 
     28 H7         -8.8800   22.6955  -18.3201 H         1 PHENYL      0.0615 
     29 H8        -10.6033   21.5676  -19.7281 H         1 PHENYL      0.0323 
     30 H9        -11.9016   22.2383  -18.7144 H         1 PHENYL      0.0323 
     31 H10       -10.9301   21.1025  -16.7280 H         1 PHENYL      0.0706 
     32 H11       -12.8004   20.0622  -18.1083 H         1 PHENYL      0.0631 
     33 H12       -12.9515   16.7998  -19.7836 H         1 PHENYL      0.0236 
     34 H13       -13.8442   18.2754  -19.3602 H         1 PHENYL      0.0236 
     35 H14       -13.2702   17.1780  -18.0763 H         1 PHENYL      0.0236 
     36 H15        -9.5516   17.8419  -18.6656 H         1 PHENYL      0.0236 
     37 H16       -10.5618   16.5465  -19.3009 H         1 PHENYL      0.0236 
     38 H17       -10.6891   16.9970  -17.5852 H         1 PHENYL      0.0236 
     39 H18       -12.0980   19.7770  -20.6443 H         1 PHENYL      0.0236 
     40 H19       -11.4385   18.1989  -21.1439 H         1 PHENYL      0.0236 
     41 H20       -10.3547   19.3982  -20.4310 H         1 PHENYL      0.0236 
     42 H21       -12.3413   19.3988  -15.8992 H         1 PHENYL      0.2099 
     43 H22        -9.2924   19.2144  -15.7634 H         1 PHENYL      0.1361 
     44 H23        -6.4094   19.6416  -18.9009 H         1 PHENYL      0.0863 
@<TRIPOS>BOND
     1    2    3 ar   
     2    2    7 ar   
     3    7    6 ar   
     4    6    5 ar   
     5    5    4 ar   
     6    4    3 ar   
     7    2    1 1    
     8    1    8 1    
     9    8    9 1    
    10    9   10 1    
    11   10   11 1    
    12   11   12 1    
    13   12   13 1    
    14   12   14 1    
    15   12   15 1    
    16   11   16 1    
    17   10   17 1    
    18   17   18 1    
    19   18   19 2    
    20   19   20 1    
    21   20   21 2    
    22   17   21 1    
    23    3   22 1    
    24    4   23 1    
    25    5   24 1    
    26    6   25 1    
    27    7   26 1    
    28    8   27 1    
    29    8   28 1    
    30    9   29 1    
    31    9   30 1    
    32   10   31 1    
    33   11   32 1    
    34   13   33 1    
    35   13   34 1    
    36   13   35 1    
    37   14   36 1    
    38   14   37 1    
    39   14   38 1    
    40   15   39 1    
    41   15   40 1    
    42   15   41 1    
    43   16   42 1    
    44   18   43 1    
    45   20   44 1    
@<TRIPOS>SUBSTRUCTURE
     1 PHENYL      2 PERM              0 ****  ****    0 ROOT 
@<TRIPOS>NORMAL
@<TRIPOS>FF_PBC
FORCE_FIELD_SETUP_FEATURE Force Field Setup information
v1.0  0 0.000000 0.000000 0.000000 0.000000 0.000000 0.000000 NONE 0 0 0 0 1 0 0 0 0 0 0 0 0
@<TRIPOS>RENDERING_ATTRS
ANTIALIASED_LINES 
*
