#	Name:			PISM00599
#	Creating user name:	baoopengkun
#	Creation time:		Mon Dec 10 12:02:24 2018

#	Modifying user name:	baoopengkun
#	Modification time:	Mon Dec 10 12:02:39 2018

@<TRIPOS>MOLECULE
PISM00599
   42    44     1     2     0
SMALL
GAST_HUCK


@<TRIPOS>ATOM
      1 C1         -2.8051    9.1326   -4.3633 C.ar      1 <1>        -0.0404 
      2 C2         -4.1814    9.3740   -4.3234 C.ar      1 <1>        -0.0286 
      3 C3         -5.0631    8.5618   -5.0457 C.ar      1 <1>        -0.0144 
      4 C4         -4.5531    7.4954   -5.7944 C.ar      1 <1>        -0.0286 
      5 C5         -3.1771    7.2533   -5.8332 C.ar      1 <1>        -0.0404 
      6 C6         -2.2955    8.0801   -5.1301 C.ar      1 <1>        -0.0015 
      7 C7         -0.7822    7.8264   -5.1996 C.3       1 <1>         0.1853 
      8 C8         -0.3912    6.8003   -4.1074 C.3       1 <1>         0.1039 
      9 N9          0.9994    6.3653   -4.1113 N.pl3     1 <1>        -0.1823 
     10 N10         1.5122    5.3269   -3.3926 N.2       1 <1>        -0.1909 
     11 C11         2.7638    5.1419   -3.5931 C.2       1 <1>         0.0618 
     12 N12         3.0395    6.1833   -4.5436 N.2       1 <1>        -0.2870 
     13 C13         1.9975    6.8364   -4.7960 C.2       1 <1>         0.1269 
     14 O14        -0.0337    9.0439   -5.0907 O.3       1 <1>        -0.3861 
     15 C15        -0.1949    9.7268   -6.3374 C.3       1 <1>         0.0634 
     16 C16        -0.2168    8.5440   -7.3385 C.3       1 <1>         0.0716 
     17 O17        -0.3957    7.3853   -6.5083 O.3       1 <1>        -0.3832 
     18 C18        -6.5737    8.8274   -5.0233 C.3       1 <1>        -0.0157 
     19 C19        -1.3312    8.6676   -8.4110 C.3       1 <1>        -0.0258 
     20 C20        -1.3454    7.4301   -9.3483 C.3       1 <1>        -0.0535 
     21 C21        -2.4737    7.5392  -10.4064 C.3       1 <1>        -0.0652 
     22 H22        -2.1301    9.7653   -3.7951 H         1 <1>         0.0834 
     23 H23        -4.5610   10.1969   -3.7258 H         1 <1>         0.0652 
     24 H3         -5.2261    6.8491   -6.3493 H         1 <1>         0.0652 
     25 H4         -2.7922    6.4199   -6.4126 H         1 <1>         0.0834 
     26 H5         -1.0074    5.8982   -4.2366 H         1 <1>         0.0584 
     27 H6         -0.6048    7.2376   -3.1210 H         1 <1>         0.0584 
     28 H7          3.4324    4.3989   -3.1614 H         1 <1>         0.0863 
     29 H8          1.9790    7.6693   -5.4957 H         1 <1>         0.1361 
     30 H9          0.6250   10.4406   -6.5111 H         1 <1>         0.0574 
     31 H10        -1.1497   10.2756   -6.3337 H         1 <1>         0.0574 
     32 H11         0.7660    8.4359   -7.8262 H         1 <1>         0.0607 
     33 H12        -1.1546    9.5793   -9.0043 H         1 <1>         0.0290 
     34 H13        -2.3119    8.7615   -7.9204 H         1 <1>         0.0290 
     35 H14        -1.4988    6.5161   -8.7510 H         1 <1>         0.0263 
     36 H15        -0.3736    7.3449   -9.8625 H         1 <1>         0.0263 
     37 H16        -2.4653    6.6543  -11.0623 H         1 <1>         0.0230 
     38 H17        -2.3315    8.4373  -11.0276 H         1 <1>         0.0230 
     39 H18        -3.4570    7.6009   -9.9142 H         1 <1>         0.0230 
     40 H1         -6.7958    9.8630   -4.7245 H         1 <1>         0.0464 
     41 H2         -7.0452    8.1400   -4.3052 H         1 <1>         0.0464 
     42 H19        -7.0061    8.6565   -6.0210 H         1 <1>         0.0464 
@<TRIPOS>BOND
     1    2    1 ar   
     2    2    3 ar   
     3    3    4 ar   
     4    4    5 ar   
     5    5    6 ar   
     6    1    6 ar   
     7    6    7 1    
     8    7    8 1    
     9    8    9 1    
    10    9   10 1    
    11   10   11 2    
    12   11   12 1    
    13   12   13 2    
    14    9   13 1    
    15    7   14 1    
    16   14   15 1    
    17   15   16 1    
    18   16   17 1    
    19    7   17 1    
    20    3   18 1    
    21   16   19 1    
    22   19   20 1    
    23   20   21 1    
    24    1   22 1    
    25    2   23 1    
    26    4   24 1    
    27    5   25 1    
    28    8   26 1    
    29    8   27 1    
    30   11   28 1    
    31   13   29 1    
    32   15   30 1    
    33   15   31 1    
    34   16   32 1    
    35   19   33 1    
    36   19   34 1    
    37   20   35 1    
    38   20   36 1    
    39   21   37 1    
    40   21   38 1    
    41   21   39 1    
    42   18   40 1    
    43   18   41 1    
    44   18   42 1    
@<TRIPOS>SUBSTRUCTURE
     1 ****        2 TEMP              0 ****  ****    0 ROOT 
@<TRIPOS>NORMAL
@<TRIPOS>FF_PBC
FORCE_FIELD_SETUP_FEATURE Force Field Setup information
v1.0  0 0.000000 0.000000 0.000000 0.000000 0.000000 0.000000 NONE 0 0 0 0 1 0 0 0 0 0 0 0 0
@<TRIPOS>RENDERING_ATTRS
ANTIALIASED_LINES 
*
