#	Name:			PISM00933.1
#	Creating user name:	baoopengkun
#	Creation time:		Wed Dec 12 22:41:34 2018

#	Modifying user name:	baoopengkun
#	Modification time:	Wed Dec 12 22:44:19 2018

@<TRIPOS>MOLECULE
PISM00933.1
   29    29     1     1     0
SMALL
GAST_HUCK


@<TRIPOS>ATOM
      1 C1          2.0537  -11.8324   10.1952 C.3       1 <1>         0.0211 
      2 C2          2.4015  -10.5909    9.4208 C.2       1 <1>         0.1065 
      3 C3          3.5029   -9.8451    9.4779 C.2       1 <1>         0.0036 
      4 C4          3.4230   -8.6725    8.5259 C.3       1 <1>         0.1567 
      5 O5          2.1468   -8.8260    7.8716 O.3       1 <1>        -0.3011 
      6 C6          1.5981   -9.9079    8.4123 C.2       1 <1>         0.3142 
      7 C7          4.7297  -10.0452   10.3308 C.3       1 <1>        -0.0314 
      8 C8          3.4834   -7.3008    9.2424 C.3       1 <1>        -0.0382 
      9 O9          0.4930  -10.3064    8.0855 O.2       1 <1>        -0.3160 
     10 O10         4.4604   -8.7521    7.5428 O.3       1 <1>        -0.4268 
     11 C11         2.3747   -7.1516   10.3209 C.3       1 <1>        -0.0608 
     12 C12         2.4434   -5.7609   11.0081 C.3       1 <1>        -0.0569 
     13 C13         1.3360   -5.6093   12.0835 C.3       1 <1>        -0.0653 
     14 H1          2.7595  -12.6376    9.9429 H         1 <1>         0.0617 
     15 H2          1.0338  -12.1635    9.9482 H         1 <1>         0.0617 
     16 H3          2.1078  -11.6258   11.2745 H         1 <1>         0.0617 
     17 H4          4.6978  -11.0109   10.8558 H         1 <1>         0.0389 
     18 H5          4.8059   -9.2443   11.0805 H         1 <1>         0.0389 
     19 H6          5.6263  -10.0236    9.6934 H         1 <1>         0.0389 
     20 H7          3.3586   -6.5178    8.4776 H         1 <1>         0.0157 
     21 H8          4.4775   -7.1752    9.6990 H         1 <1>         0.0157 
     22 H9          4.3901   -9.5434    7.0204 H         1 <1>         0.1890 
     23 H10         2.4887   -7.9350   11.0871 H         1 <1>         0.0254 
     24 H11         1.3865   -7.2732    9.8478 H         1 <1>         0.0254 
     25 H12         2.3213   -4.9685   10.2508 H         1 <1>         0.0262 
     26 H13         3.4296   -5.6331   11.4851 H         1 <1>         0.0262 
     27 H14         1.4504   -6.3776   12.8641 H         1 <1>         0.0230 
     28 H15         0.3397   -5.7151   11.6263 H         1 <1>         0.0230 
     29 H16         1.4005   -4.6168   12.5568 H         1 <1>         0.0230 
@<TRIPOS>BOND
     1    2    1 1    
     2    2    3 2    
     3    3    4 1    
     4    4    5 1    
     5    5    6 1    
     6    2    6 1    
     7    3    7 1    
     8    4    8 1    
     9    6    9 2    
    10    4   10 1    
    11    8   11 1    
    12   11   12 1    
    13   12   13 1    
    14    1   14 1    
    15    1   15 1    
    16    1   16 1    
    17    7   17 1    
    18    7   18 1    
    19    7   19 1    
    20    8   20 1    
    21    8   21 1    
    22   10   22 1    
    23   11   23 1    
    24   11   24 1    
    25   12   25 1    
    26   12   26 1    
    27   13   27 1    
    28   13   28 1    
    29   13   29 1    
@<TRIPOS>SUBSTRUCTURE
     1 ****        2 TEMP              0 ****  ****    0 ROOT 
@<TRIPOS>NORMAL
@<TRIPOS>FF_PBC
FORCE_FIELD_SETUP_FEATURE Force Field Setup information
v1.0  0 0.000000 0.000000 0.000000 0.000000 0.000000 0.000000 NONE 0 0 0 0 1 0 0 0 0 0 0 0 0
