#	Name:			PISM00581
#	Creating user name:	baoopengkun
#	Creation time:		Fri Jan 25 19:35:06 2019

#	Modifying user name:	baoopengkun
#	Modification time:	Fri Jan 25 19:41:25 2019

@<TRIPOS>MOLECULE
PISM00581
   41    43     1     1     0
SMALL
GAST_HUCK


@<TRIPOS>ATOM
      1 C1         -9.0481   11.2608   14.2814 C.ar      1 <1>        -0.0370 
      2 C2         -8.8155   12.1626   15.3241 C.ar      1 <1>        -0.0323 
      3 C3         -7.6989   12.9996   15.2918 C.ar      1 <1>        -0.0340 
      4 C4         -6.8391   12.9432   14.1936 C.ar      1 <1>        -0.0323 
      5 C5         -7.0788   12.0309   13.1614 C.ar      1 <1>        -0.0370 
      6 C6         -8.1419   11.1170   13.2203 C.ar      1 <1>        -0.0190 
      7 C7         -8.2968   10.0117   12.1397 C.3       1 <1>         0.0878 
      8 C8         -9.1622    8.7800   12.6061 C.3       1 <1>         0.1026 
      9 C9         -8.6129    8.1127   13.9093 C.3       1 <1>         0.0090 
     10 C10        -8.5250    6.5708   13.9063 C.ar      1 <1>        -0.0404 
     11 C11        -9.3738    5.7493   13.1503 C.ar      1 <1>        -0.0596 
     12 C12        -9.2244    4.3591   13.1672 C.ar      1 <1>        -0.0546 
     13 C13        -8.2345    3.7665   13.9537 C.ar      1 <1>         0.0330 
     14 C14        -7.3960    4.5717   14.7264 C.ar      1 <1>        -0.0546 
     15 C15        -7.5472    5.9609   14.7042 C.ar      1 <1>        -0.0596 
     16 Cl16       -8.0466    2.0254   13.9723 Cl        1 <1>        -0.0771 
     17 C17        -6.9052    9.5149   11.6197 C.3       1 <1>        -0.0566 
     18 N18       -10.5939    9.0831   12.6882 N.pl3     1 <1>        -0.1786 
     19 O19        -8.9232   10.6956   11.0395 O.3       1 <1>        -0.4201 
     20 N20       -11.2367   10.1190   12.0772 N.2       1 <1>        -0.1904 
     21 C21       -12.4864   10.1860   12.3472 C.2       1 <1>         0.0618 
     22 N22       -12.6217    9.0622   13.2305 N.2       1 <1>        -0.2870 
     23 C23       -11.5180    8.4866   13.3834 C.2       1 <1>         0.1274 
     24 H1         -9.9609   10.6850   14.3215 H         1 <1>         0.0851 
     25 H2         -9.5057   12.2163   16.1611 H         1 <1>         0.0698 
     26 H3         -7.5047   13.6894   16.1079 H         1 <1>         0.0856 
     27 H4         -5.9846   13.6117   14.1417 H         1 <1>         0.0698 
     28 H5         -6.4166   12.0605   12.3063 H         1 <1>         0.0851 
     29 H6         -9.1070    8.0649   11.7737 H         1 <1>         0.0631 
     30 H7         -9.2136    8.4057   14.7821 H         1 <1>         0.0451 
     31 H8         -7.6012    8.4929   14.1028 H         1 <1>         0.0451 
     32 H9        -10.1647    6.1640   12.5376 H         1 <1>         0.0557 
     33 H10        -9.8785    3.7335   12.5683 H         1 <1>         0.0606 
     34 H11        -6.6281    4.1163   15.3434 H         1 <1>         0.0606 
     35 H12        -6.8898    6.5647   15.3220 H         1 <1>         0.0557 
     36 H13        -6.4524   10.2487   10.9370 H         1 <1>         0.0162 
     37 H14        -6.9916    8.5835   11.0405 H         1 <1>         0.0162 
     38 H15        -6.1999    9.3385   12.4447 H         1 <1>         0.0162 
     39 H16        -9.1158   10.1271   10.3014 H         1 <1>         0.1963 
     40 H17       -13.2337   10.8986   12.0018 H         1 <1>         0.0863 
     41 H18       -11.4161    7.6157   14.0289 H         1 <1>         0.1361 
@<TRIPOS>BOND
     1    2    1 ar   
     2    2    3 ar   
     3    3    4 ar   
     4    4    5 ar   
     5    5    6 ar   
     6    1    6 ar   
     7    6    7 1    
     8    7    8 1    
     9    8    9 1    
    10    9   10 1    
    11   10   11 ar   
    12   11   12 ar   
    13   12   13 ar   
    14   13   14 ar   
    15   14   15 ar   
    16   10   15 ar   
    17   13   16 1    
    18    7   17 1    
    19    8   18 1    
    20    7   19 1    
    21   18   20 1    
    22   20   21 2    
    23   21   22 1    
    24   22   23 2    
    25   18   23 1    
    26    1   24 1    
    27    2   25 1    
    28    3   26 1    
    29    4   27 1    
    30    5   28 1    
    31    8   29 1    
    32    9   30 1    
    33    9   31 1    
    34   11   32 1    
    35   12   33 1    
    36   14   34 1    
    37   15   35 1    
    38   17   36 1    
    39   17   37 1    
    40   17   38 1    
    41   19   39 1    
    42   21   40 1    
    43   23   41 1    
@<TRIPOS>SUBSTRUCTURE
     1 ****        2 TEMP              0 ****  ****    0 ROOT 
@<TRIPOS>NORMAL
@<TRIPOS>FF_PBC
FORCE_FIELD_SETUP_FEATURE Force Field Setup information
v1.0  0 0.000000 0.000000 0.000000 0.000000 0.000000 0.000000 NONE 0 0 0 0 1 0 0 0 0 0 0 0 0
