#	Name:			PISM00543.1
#	Creating user name:	malab
#	Creation time:		Fri Apr 05 22:36:15 2019

#	Modifying user name:	malab
#	Modification time:	Fri Apr 05 22:36:48 2019

@<TRIPOS>MOLECULE
PISM00543.1
   42    45     1     1     0
SMALL
USER_CHARGES


@<TRIPOS>ATOM
      1 C1         24.4186    6.7521   -5.5573 C.ar      1 <1>         0.0000 
      2 C2         25.6834    7.2969   -5.7948 C.ar      1 <1>         0.0000 
      3 C3         25.8148    8.6577   -6.0860 C.ar      1 <1>         0.0000 
      4 C4         24.6863    9.4838   -6.1429 C.ar      1 <1>         0.0000 
      5 C5         23.4222    8.9323   -5.9002 C.ar      1 <1>         0.0000 
      6 C6         23.2883    7.5726   -5.6050 C.ar      1 <1>         0.0000 
      7 C7         24.8444   10.9778   -6.4712 C.3       1 <1>         0.0000 
      8 C8         25.8437   11.6075   -5.5290 C.2       1 <1>         0.0000 
      9 C9         26.0652   11.2343   -4.2667 C.2       1 <1>         0.0000 
     10 O10        26.5719   12.6298   -5.9912 O.3       1 <1>         0.0000 
     11 C11        27.3169   12.9132   -4.9182 C.2       1 <1>         0.0000 
     12 C12        27.1103   12.1596   -3.8362 C.2       1 <1>         0.0000 
     13 C13        25.2574   11.1581   -7.9599 C.3       1 <1>         0.0000 
     14 C14        24.2551   10.4810   -8.9336 C.3       1 <1>         0.0000 
     15 N15        24.5358   10.6386  -10.3599 N.am      1 <1>         0.0000 
     16 C16        25.5565   11.3288  -10.9251 C.2       1 <1>         0.0000 
     17 O17        26.4425   11.9572  -10.3696 O.2       1 <1>         0.0000 
     18 C18        25.4672   11.2209  -12.4275 C.ar      1 <1>         0.0000 
     19 C19        24.3544   10.4341  -12.6872 C.ar      1 <1>         0.0000 
     20 C20        23.7827   10.0840  -11.3363 C.2       1 <1>         0.0000 
     21 O21        22.7864    9.3964  -11.1838 O.2       1 <1>         0.0000 
     22 C22        23.9702   10.1161  -13.9895 C.ar      1 <1>         0.0000 
     23 C23        24.7535   10.6253  -15.0333 C.ar      1 <1>         0.0000 
     24 C24        25.8765   11.4251  -14.7712 C.ar      1 <1>         0.0000 
     25 C25        26.2517   11.7373  -13.4581 C.ar      1 <1>         0.0000 
     26 H1         24.3141    5.6942   -5.3365 H         1 <1>         0.0000 
     27 H2         26.5638    6.6631   -5.7527 H         1 <1>         0.0000 
     28 H3         26.8026    9.0694   -6.2673 H         1 <1>         0.0000 
     29 H4         22.5341    9.5550   -5.9405 H         1 <1>         0.0000 
     30 H5         22.3053    7.1531   -5.4126 H         1 <1>         0.0000 
     31 H6         23.8926   11.5106   -6.3132 H         1 <1>         0.0000 
     32 H7         25.5928   10.4416   -3.6879 H         1 <1>         0.0000 
     33 H8         28.0500   13.7190   -4.9378 H         1 <1>         0.0000 
     34 H9         27.5984   12.2141   -2.8635 H         1 <1>         0.0000 
     35 H10        26.2607   10.7306   -8.1156 H         1 <1>         0.0000 
     36 H11        25.2905   12.2374   -8.1823 H         1 <1>         0.0000 
     37 H12        23.2499   10.8870   -8.7380 H         1 <1>         0.0000 
     38 H13        24.2300    9.3997   -8.7250 H         1 <1>         0.0000 
     39 H14        23.0994    9.4978  -14.1806 H         1 <1>         0.0000 
     40 H15        24.4865   10.3966  -16.0607 H         1 <1>         0.0000 
     41 H16        26.4655   11.8086  -15.5989 H         1 <1>         0.0000 
     42 H17        27.1174   12.3555  -13.2451 H         1 <1>         0.0000 
@<TRIPOS>BOND
     1    2    1 ar   
     2    2    3 ar   
     3    3    4 ar   
     4    4    5 ar   
     5    5    6 ar   
     6    1    6 ar   
     7    4    7 1    
     8    7    8 1    
     9    8    9 2    
    10    8   10 1    
    11   10   11 1    
    12   11   12 2    
    13    9   12 1    
    14    7   13 1    
    15   13   14 1    
    16   14   15 1    
    17   15   16 am   
    18   16   17 2    
    19   16   18 1    
    20   18   19 ar   
    21   19   20 1    
    22   15   20 am   
    23   20   21 2    
    24   19   22 ar   
    25   22   23 ar   
    26   23   24 ar   
    27   24   25 ar   
    28   18   25 ar   
    29    1   26 1    
    30    2   27 1    
    31    3   28 1    
    32    5   29 1    
    33    6   30 1    
    34    7   31 1    
    35    9   32 1    
    36   11   33 1    
    37   12   34 1    
    38   13   35 1    
    39   13   36 1    
    40   14   37 1    
    41   14   38 1    
    42   22   39 1    
    43   23   40 1    
    44   24   41 1    
    45   25   42 1    
@<TRIPOS>SUBSTRUCTURE
     1 ****        2 TEMP              0 ****  ****    0 ROOT 
@<TRIPOS>NORMAL
@<TRIPOS>FF_PBC
FORCE_FIELD_SETUP_FEATURE Force Field Setup information
v1.0  0 0.000000 0.000000 0.000000 0.000000 0.000000 0.000000 NONE 0 0 0 0 0 0 0 0 0 0 0 0 0
