#	Name:			PISM00627
#	Creating user name:	baoopengkun
#	Creation time:		Mon Dec 10 11:05:31 2018

#	Modifying user name:	baoopengkun
#	Modification time:	Mon Dec 10 11:05:45 2018

@<TRIPOS>MOLECULE
PISM00627
   58    62     1     2     0
SMALL
GAST_HUCK


@<TRIPOS>ATOM
      1 C1         12.7943   -3.5337  -32.3151 C.ar      1 <1>        -0.0348 
      2 C2         12.6584   -4.6634  -31.5032 C.ar      1 <1>        -0.0180 
      3 C3         12.7439   -5.9405  -32.0640 C.ar      1 <1>         0.0714 
      4 C4         12.9709   -6.0863  -33.4351 C.ar      1 <1>        -0.0180 
      5 C5         13.1003   -4.9559  -34.2468 C.ar      1 <1>        -0.0348 
      6 C6         13.0170   -3.6762  -33.6888 C.ar      1 <1>         0.0068 
      7 C7         13.1557   -2.4318  -34.5762 C.3       1 <1>         0.1921 
      8 C8         11.7561   -2.0252  -35.0870 C.3       1 <1>         0.1073 
      9 N9         10.8089   -1.9665  -33.9821 N.pl3     1 <1>        -0.1814 
     10 N10        10.5301   -0.8818  -33.2065 N.2       1 <1>        -0.1908 
     11 C11         9.6378   -1.1142  -32.3172 C.2       1 <1>         0.0618 
     12 N12         9.3358   -2.4919  -32.5918 N.2       1 <1>        -0.2870 
     13 C13        10.0298   -2.9108  -33.5493 C.2       1 <1>         0.1270 
     14 O14        13.8055   -1.3520  -33.8925 O.3       1 <1>        -0.3814 
     15 C15        15.1903   -1.6975  -33.8309 C.3       1 <1>         0.0672 
     16 C16        15.3884   -2.3345  -35.2269 C.3       1 <1>         0.1000 
     17 O17        14.0580   -2.6520  -35.6718 O.3       1 <1>        -0.3758 
     18 C18        16.3257   -3.5679  -35.1988 C.3       1 <1>         0.0952 
     19 O19        15.7939   -4.5727  -34.3198 O.3       1 <1>        -0.3192 
     20 C20        16.6106   -5.6890  -34.1411 C.ar      1 <1>         0.1199 
     21 C21        16.2692   -6.8967  -34.7544 C.ar      1 <1>        -0.0415 
     22 C22        17.1171   -8.0018  -34.6432 C.ar      1 <1>        -0.0819 
     23 C23        18.3332   -7.8767  -33.9659 C.ar      1 <1>        -0.0819 
     24 C24        18.6753   -6.6631  -33.3618 C.ar      1 <1>        -0.0414 
     25 C25        17.7663   -5.6004  -33.3562 C.ar      1 <1>         0.1201 
     26 O26        18.0148   -4.4503  -32.5967 O.3       1 <1>        -0.3186 
     27 C27        17.5368   -4.3743  -31.2329 C.3       1 <1>         0.0788 
     28 C28        18.3312   -5.2668  -30.2344 C.3       1 <1>        -0.0226 
     29 Cl29       12.5648   -7.3586  -31.0517 Cl        1 <1>        -0.0420 
     30 H1         12.7213   -2.5420  -31.8787 H         1 <1>         0.0849 
     31 H2         12.4866   -4.5505  -30.4376 H         1 <1>         0.0703 
     32 H3         13.0457   -7.0790  -33.8670 H         1 <1>         0.0703 
     33 H4         13.2690   -5.0720  -35.3127 H         1 <1>         0.0849 
     34 H5         11.4208   -2.7569  -35.8376 H         1 <1>         0.0595 
     35 H6         11.8271   -1.0379  -35.5666 H         1 <1>         0.0595 
     36 H7          9.2229   -0.4475  -31.5627 H         1 <1>         0.0863 
     37 H8          9.9728   -3.9247  -33.9436 H         1 <1>         0.1361 
     38 H9         15.3544   -2.4243  -33.0209 H         1 <1>         0.0576 
     39 H10        15.8230   -0.8150  -33.6505 H         1 <1>         0.0576 
     40 H11        15.7747   -1.5792  -35.9314 H         1 <1>         0.0635 
     41 H12        17.3225   -3.2414  -34.8603 H         1 <1>         0.0635 
     42 H13        16.4087   -3.9816  -36.2165 H         1 <1>         0.0635 
     43 H14        15.3460   -6.9703  -35.3187 H         1 <1>         0.0509 
     44 H15        16.8348   -8.9520  -35.0862 H         1 <1>         0.0495 
     45 H16        19.0132   -8.7214  -33.9110 H         1 <1>         0.0495 
     46 H17        19.6523   -6.5491  -32.9065 H         1 <1>         0.0509 
     47 C47        17.2705   -6.0898  -29.4617 C.3       1 <1>        -0.0503 
     48 C48        16.1180   -6.2139  -30.4806 C.3       1 <1>        -0.0503 
     49 C49        16.0481   -4.7768  -31.0400 C.3       1 <1>        -0.0226 
     50 H18        17.6626   -3.3125  -30.9602 H         1 <1>         0.0645 
     51 H19        18.9667   -4.6813  -29.5493 H         1 <1>         0.0294 
     52 H20        18.9813   -5.9644  -30.7748 H         1 <1>         0.0294 
     53 H21        16.9209   -5.5204  -28.5835 H         1 <1>         0.0266 
     54 H22        17.6442   -7.0695  -29.1203 H         1 <1>         0.0266 
     55 H23        15.1747   -6.5394  -30.0137 H         1 <1>         0.0266 
     56 H24        16.3883   -6.9243  -31.2799 H         1 <1>         0.0266 
     57 H25        15.5804   -4.1306  -30.2774 H         1 <1>         0.0294 
     58 H26        15.4396   -4.7125  -31.9480 H         1 <1>         0.0294 
@<TRIPOS>BOND
     1    2    1 ar   
     2    2    3 ar   
     3    3    4 ar   
     4    4    5 ar   
     5    5    6 ar   
     6    1    6 ar   
     7    6    7 1    
     8    7    8 1    
     9    8    9 1    
    10    9   10 1    
    11   10   11 2    
    12   11   12 1    
    13   12   13 2    
    14    9   13 1    
    15    7   14 1    
    16   14   15 1    
    17   15   16 1    
    18   16   17 1    
    19    7   17 1    
    20   16   18 1    
    21   18   19 1    
    22   19   20 1    
    23   20   21 ar   
    24   21   22 ar   
    25   22   23 ar   
    26   23   24 ar   
    27   24   25 ar   
    28   20   25 ar   
    29   25   26 1    
    30   26   27 1    
    31   27   28 1    
    32    3   29 1    
    33    1   30 1    
    34    2   31 1    
    35    4   32 1    
    36    5   33 1    
    37    8   34 1    
    38    8   35 1    
    39   11   36 1    
    40   13   37 1    
    41   15   38 1    
    42   15   39 1    
    43   16   40 1    
    44   18   41 1    
    45   18   42 1    
    46   21   43 1    
    47   22   44 1    
    48   23   45 1    
    49   24   46 1    
    50   28   47 1    
    51   47   48 1    
    52   48   49 1    
    53   27   49 1    
    54   27   50 1    
    55   28   51 1    
    56   28   52 1    
    57   47   53 1    
    58   47   54 1    
    59   48   55 1    
    60   48   56 1    
    61   49   57 1    
    62   49   58 1    
@<TRIPOS>SUBSTRUCTURE
     1 ****        2 TEMP              0 ****  ****    0 ROOT 
@<TRIPOS>NORMAL
@<TRIPOS>FF_PBC
FORCE_FIELD_SETUP_FEATURE Force Field Setup information
v1.0  0 0.000000 0.000000 0.000000 0.000000 0.000000 0.000000 NONE 0 0 0 0 1 0 0 0 0 0 0 0 0
@<TRIPOS>RENDERING_ATTRS
ANTIALIASED_LINES 
*
