#	Name:			PISM00292.1
#	Creating user name:	malab
#	Creation time:		Fri Apr 05 15:31:00 2019

#	Modifying user name:	malab
#	Modification time:	Fri Apr 05 15:31:41 2019

@<TRIPOS>MOLECULE
PISM00292.1
   65    65     1     1     0
SMALL
GAST_HUCK


@<TRIPOS>ATOM
      1 C1        -19.2783   20.6202   50.3318 C.3       1 <1>        -0.0681 
      2 Si2       -19.7670   18.8947   50.7833 Si        1 <1>         0.0000 
      3 C3        -19.1900   18.5198   52.4991 C.3       1 <1>        -0.0681 
      4 C4        -21.6092   18.7613   50.7283 C.3       1 <1>        -0.0681 
      5 C5        -19.0520   17.6815   49.5749 C.3       1 <1>        -0.0273 
      6 C6        -17.5054   17.6901   49.5710 C.3       1 <1>         0.0504 
      7 O7        -17.0733   16.7429   48.5764 O.3       1 <1>        -0.3540 
      8 C8        -15.6433   16.6538   48.4411 C.3       1 <1>         0.1485 
      9 O9        -15.3270   15.7013   47.4100 O.3       1 <1>        -0.3500 
     10 C10       -15.5831   16.1426   46.0557 C.3       1 <1>         0.0740 
     11 C11       -17.0559   16.5595   45.7835 C.3       1 <1>         0.0012 
     12 C12       -17.3297   16.7882   44.2672 C.3       1 <1>         0.0689 
     13 O13       -16.7707   15.7413   43.4496 O.3       1 <1>        -0.3471 
     14 C14       -15.3737   15.4615   43.6477 C.3       1 <1>         0.1645 
     15 C15       -15.0951   14.9972   45.1079 C.3       1 <1>         0.0496 
     16 C16       -17.1702   18.2520   43.7016 C.3       1 <1>        -0.0113 
     17 C17       -15.9031   19.0207   44.1900 C.3       1 <1>        -0.0577 
     18 C18       -18.4095   19.1193   44.1016 C.3       1 <1>        -0.0577 
     19 C19       -17.1319   18.1771   42.1449 C.3       1 <1>        -0.0577 
     20 O20       -15.1230   14.3892   42.7276 O.3       1 <1>        -0.3664 
     21 C21       -13.5674   14.6757   45.3693 C.3       1 <1>        -0.0083 
     22 C22       -12.6512   15.9213   45.5851 C.3       1 <1>        -0.0596 
     23 C23       -12.8926   13.7840   44.2780 C.3       1 <1>         0.0475 
     24 O24       -11.5821   13.3446   44.6828 O.3       1 <1>        -0.3947 
     25 C25       -15.9489   13.7125   45.3781 C.3       1 <1>        -0.0522 
     26 H1        -19.7892   21.3275   51.0013 H         1 <1>         0.0227 
     27 H2        -18.1907   20.7418   50.4373 H         1 <1>         0.0227 
     28 H3        -19.5728   20.8223   49.2915 H         1 <1>         0.0227 
     29 H4        -19.4382   17.4777   52.7481 H         1 <1>         0.0227 
     30 H5        -19.6937   19.1955   53.2057 H         1 <1>         0.0227 
     31 H6        -18.1027   18.6669   52.5687 H         1 <1>         0.0227 
     32 H7        -21.9616   18.9847   49.7107 H         1 <1>         0.0227 
     33 H8        -22.0495   19.4791   51.4357 H         1 <1>         0.0227 
     34 H9        -21.9101   17.7405   51.0057 H         1 <1>         0.0227 
     35 H10       -19.4249   17.9376   48.5709 H         1 <1>         0.0288 
     36 H11       -19.4143   16.6756   49.8377 H         1 <1>         0.0288 
     37 H12       -17.1279   17.4071   50.5669 H         1 <1>         0.0561 
     38 H13       -17.1470   18.7011   49.3194 H         1 <1>         0.0561 
     39 H14       -15.2211   16.2503   49.3747 H         1 <1>         0.0871 
     40 H15       -15.1706   17.6285   48.2360 H         1 <1>         0.0871 
     41 H16       -14.9854   17.0393   45.8555 H         1 <1>         0.0605 
     42 H17       -17.3134   17.4791   46.3259 H         1 <1>         0.0316 
     43 H18       -17.7083   15.7682   46.1834 H         1 <1>         0.0316 
     44 H19       -18.3991   16.5619   44.1213 H         1 <1>         0.0603 
     45 H20       -14.7380   16.3145   43.3743 H         1 <1>         0.0914 
     46 H21       -15.9213   19.1739   45.2785 H         1 <1>         0.0236 
     47 H22       -15.8656   20.0185   43.7262 H         1 <1>         0.0236 
     48 H23       -14.9702   18.5140   43.9181 H         1 <1>         0.0236 
     49 H24       -18.5062   19.2014   45.1938 H         1 <1>         0.0236 
     50 H25       -19.3443   18.6913   43.7075 H         1 <1>         0.0236 
     51 H26       -18.3225   20.1396   43.6971 H         1 <1>         0.0236 
     52 H27       -17.1169   19.1836   41.6991 H         1 <1>         0.0236 
     53 H28       -16.2345   17.6431   41.7993 H         1 <1>         0.0236 
     54 H29       -18.0170   17.6461   41.7617 H         1 <1>         0.0236 
     55 H30       -15.3636   14.6202   41.8358 H         1 <1>         0.2125 
     56 H31       -13.5192   14.1064   46.3131 H         1 <1>         0.0328 
     57 H32       -11.5944   15.6224   45.6578 H         1 <1>         0.0233 
     58 H33       -12.8816   16.4436   46.5260 H         1 <1>         0.0233 
     59 H34       -12.7404   16.6284   44.7476 H         1 <1>         0.0233 
     60 H35       -12.7434   14.3725   43.3596 H         1 <1>         0.0560 
     61 H36       -13.4777   12.8895   44.0185 H         1 <1>         0.0560 
     62 H37       -11.5930   12.7934   45.4596 H         1 <1>         0.2094 
     63 H38       -15.6094   12.8534   44.7869 H         1 <1>         0.0238 
     64 H39       -17.0067   13.8533   45.1177 H         1 <1>         0.0238 
     65 H40       -15.8979   13.4272   46.4397 H         1 <1>         0.0238 
@<TRIPOS>BOND
     1    2    1 1    
     2    2    3 1    
     3    2    4 1    
     4    2    5 1    
     5    5    6 1    
     6    6    7 1    
     7    7    8 1    
     8    8    9 1    
     9    9   10 1    
    10   10   11 1    
    11   11   12 1    
    12   12   13 1    
    13   13   14 1    
    14   14   15 1    
    15   10   15 1    
    16   12   16 1    
    17   16   17 1    
    18   16   18 1    
    19   16   19 1    
    20   14   20 1    
    21   15   21 1    
    22   21   22 1    
    23   21   23 1    
    24   23   24 1    
    25   15   25 1    
    26    1   26 1    
    27    1   27 1    
    28    1   28 1    
    29    3   29 1    
    30    3   30 1    
    31    3   31 1    
    32    4   32 1    
    33    4   33 1    
    34    4   34 1    
    35    5   35 1    
    36    5   36 1    
    37    6   37 1    
    38    6   38 1    
    39    8   39 1    
    40    8   40 1    
    41   10   41 1    
    42   11   42 1    
    43   11   43 1    
    44   12   44 1    
    45   14   45 1    
    46   17   46 1    
    47   17   47 1    
    48   17   48 1    
    49   18   49 1    
    50   18   50 1    
    51   18   51 1    
    52   19   52 1    
    53   19   53 1    
    54   19   54 1    
    55   20   55 1    
    56   21   56 1    
    57   22   57 1    
    58   22   58 1    
    59   22   59 1    
    60   23   60 1    
    61   23   61 1    
    62   24   62 1    
    63   25   63 1    
    64   25   64 1    
    65   25   65 1    
@<TRIPOS>SUBSTRUCTURE
     1 ****        2 TEMP              0 ****  ****    0 ROOT 
@<TRIPOS>NORMAL
@<TRIPOS>FF_PBC
FORCE_FIELD_SETUP_FEATURE Force Field Setup information
v1.0  0 0.000000 0.000000 0.000000 0.000000 0.000000 0.000000 NONE 0 0 0 0 1 0 0 0 0 0 0 0 0
