#	Name:			PISM00792
#	Creating user name:	baoopengkun
#	Creation time:		Tue Jan 08 16:04:46 2019

#	Modifying user name:	baoopengkun
#	Modification time:	Tue Jan 08 16:05:09 2019

@<TRIPOS>MOLECULE
PISM00792
   59    63     1     1     0
SMALL
GAST_HUCK


@<TRIPOS>ATOM
      1 C1         18.6599   10.0709  -41.9285 C.ar      1 <1>        -0.0373 
      2 C2         16.7100   10.7821  -43.3211 C.ar      1 <1>        -0.0682 
      3 C3         15.5070   11.4748  -43.5157 C.ar      1 <1>        -0.0412 
      4 C4         15.0019   12.1979  -42.4347 C.ar      1 <1>         0.0661 
      5 C5         15.6800   12.2274  -41.2236 C.ar      1 <1>        -0.0099 
      6 C6         16.8829   11.5571  -41.0136 C.ar      1 <1>        -0.0647 
      7 C7         14.7819   13.0975  -40.3865 C.2       1 <1>        -0.0156 
      8 C8         13.7625   13.4462  -41.1629 C.2       1 <1>         0.1041 
      9 N9         13.8678   12.9354  -42.3611 N.pl3     1 <1>        -0.2676 
     10 C10        12.9131   13.1289  -43.4455 C.3       1 <1>         0.0369 
     11 C11        12.8549   14.2974  -40.4006 C.2       1 <1>         0.1400 
     12 O12        11.8087   14.8086  -40.7659 O.2       1 <1>        -0.4040 
     13 C13        13.4837   14.4196  -39.0720 C.2       1 <1>         0.0306 
     14 C14        14.7727   13.6175  -38.9756 C.3       1 <1>         0.0054 
     15 C15        12.9814   15.1534  -38.0740 C.2       1 <1>         0.0831 
     16 O16        13.6395   15.2191  -36.9076 O.3       1 <1>        -0.2667 
     17 C17        12.9971   16.0402  -35.9169 C.3       1 <1>         0.2400 
     18 C18        12.8785   17.4811  -36.3546 C.2       1 <1>        -0.0007 
     19 C19        11.6035   17.8656  -36.3343 C.2       1 <1>         0.0293 
     20 C20        10.8900   16.6724  -35.8887 C.2       1 <1>         0.2496 
     21 O21        11.6466   15.6050  -35.6608 O.3       1 <1>        -0.2302 
     22 C22        11.0344   19.2135  -36.6834 C.3       1 <1>        -0.0323 
     23 O23         9.6809   16.6481  -35.7390 O.2       1 <1>        -0.3691 
     24 C24        19.7275   10.2924  -42.8030 C.ar      1 <1>        -0.0669 
     25 C25        20.9256    9.5903  -42.6416 C.ar      1 <1>        -0.0438 
     26 C26        21.0676    8.6509  -41.6134 C.ar      1 <1>         0.0403 
     27 C27        19.9921    8.4281  -40.7454 C.ar      1 <1>        -0.0438 
     28 C28        18.7972    9.1375  -40.8971 C.ar      1 <1>        -0.0669 
     29 N29        22.2310    7.9659  -41.4604 N.pl3     1 <1>        -0.3146 
     30 C30        22.9373    7.4373  -42.6276 C.3       1 <1>         0.0153 
     31 C31        22.7910    7.7484  -40.1263 C.3       1 <1>         0.0153 
     32 H1         17.1221   10.2015  -44.1404 H         1 <1>         0.0548 
     33 H2         14.9899   11.4480  -44.4683 H         1 <1>         0.0548 
     34 H3         17.3964   11.6099  -40.0601 H         1 <1>         0.0554 
     35 H4         12.0716   13.7688  -43.1385 H         1 <1>         0.0555 
     36 C36        17.3895   10.8201  -42.0922 C.ar      1 <1>        -0.0395 
     37 H5         12.5125   12.1532  -43.7595 H         1 <1>         0.0555 
     38 H6         13.4194   13.6041  -44.2993 H         1 <1>         0.0555 
     39 C39        14.6833   12.4471  -37.9665 C.3       1 <1>        -0.0510 
     40 H8         15.6433   14.2664  -38.7899 H         1 <1>         0.0507 
     41 H9         12.0404   15.6718  -38.2733 H         1 <1>         0.1132 
     42 H10        13.5792   15.9856  -34.9829 H         1 <1>         0.1214 
     43 H11        13.7189   18.1111  -36.6431 H         1 <1>         0.0706 
     44 H12        11.0994   19.3691  -37.7705 H         1 <1>         0.0347 
     45 H13        11.6005   20.0053  -36.1704 H         1 <1>         0.0347 
     46 H14         9.9794   19.2737  -36.3760 H         1 <1>         0.0347 
     47 H15        19.6288   11.0145  -43.6075 H         1 <1>         0.0582 
     48 H16        21.7488    9.7880  -43.3194 H         1 <1>         0.0518 
     49 H17        20.0740    7.6954  -39.9500 H         1 <1>         0.0518 
     50 H18        17.9727    8.9589  -40.2139 H         1 <1>         0.0582 
     51 H19        23.7059    8.1568  -42.9482 H         1 <1>         0.0478 
     52 H20        22.2482    7.2480  -43.4658 H         1 <1>         0.0478 
     53 H21        23.4294    6.4847  -42.3777 H         1 <1>         0.0478 
     54 H22        23.8911    7.7653  -40.1662 H         1 <1>         0.0478 
     55 H23        22.4677    6.7667  -39.7484 H         1 <1>         0.0478 
     56 H24        22.4697    8.5304  -39.4203 H         1 <1>         0.0478 
     57 H7         13.7958   11.8300  -38.1762 H         1 <1>         0.0265 
     58 H25        14.6137   12.8288  -36.9370 H         1 <1>         0.0265 
     59 H26        15.5808   11.8148  -38.0460 H         1 <1>         0.0265 
@<TRIPOS>BOND
     1   36    1 1    
     2    3    2 ar   
     3    4    3 ar   
     4    5    4 ar   
     5    6    5 ar   
     6    1   24 ar   
     7    5    7 1    
     8    7    8 2    
     9    8    9 1    
    10    4    9 1    
    11    9   10 1    
    12    8   11 1    
    13   11   12 2    
    14   13   11 1    
    15   14   13 1    
    16    7   14 1    
    17   13   15 2    
    18   15   16 1    
    19   16   17 1    
    20   17   18 1    
    21   18   19 2    
    22   20   19 1    
    23   21   20 1    
    24   17   21 1    
    25   19   22 1    
    26   20   23 2    
    27    6   36 ar   
    28   24   25 ar   
    29   25   26 ar   
    30   26   27 ar   
    31   27   28 ar   
    32    1   28 ar   
    33   26   29 1    
    34   29   30 1    
    35   29   31 1    
    36    2   32 1    
    37    3   33 1    
    38    6   34 1    
    39   10   35 1    
    40   10   37 1    
    41    2   36 ar   
    42   10   38 1    
    43   14   39 1    
    44   14   40 1    
    45   15   41 1    
    46   17   42 1    
    47   18   43 1    
    48   22   44 1    
    49   22   45 1    
    50   22   46 1    
    51   24   47 1    
    52   25   48 1    
    53   27   49 1    
    54   28   50 1    
    55   30   51 1    
    56   30   52 1    
    57   30   53 1    
    58   31   54 1    
    59   31   55 1    
    60   31   56 1    
    61   39   57 1    
    62   39   58 1    
    63   39   59 1    
@<TRIPOS>SUBSTRUCTURE
     1 ****        2 TEMP              0 ****  ****    0 ROOT 
@<TRIPOS>NORMAL
@<TRIPOS>FF_PBC
FORCE_FIELD_SETUP_FEATURE Force Field Setup information
v1.0  0 0.000000 0.000000 0.000000 0.000000 0.000000 0.000000 NONE 0 0 0 0 1 0 0 0 0 0 0 0 0
