#	Name:			PISM00921
#	Creating user name:	baoopengkun
#	Creation time:		Fri Dec 14 10:31:16 2018

#	Modifying user name:	baoopengkun
#	Modification time:	Fri Dec 14 11:04:37 2018

@<TRIPOS>MOLECULE
PISM00921
   43    45     1     1     0
SMALL
GAST_HUCK


@<TRIPOS>ATOM
      1 C1         22.4911    9.4977  -11.5489 C.ar      1 <1>        -0.0145 
      2 C2         22.0443    8.2122  -11.2115 C.ar      1 <1>         0.0720 
      3 C3         22.7732    7.0812  -11.6202 C.ar      1 <1>        -0.0299 
      4 C4         23.9252    7.1967  -12.4092 C.ar      1 <1>        -0.0474 
      5 C5         24.3446    8.4827  -12.7453 C.ar      1 <1>         0.0608 
      6 C6         23.6460    9.6035  -12.3223 C.ar      1 <1>         0.0637 
      7 C7         24.4025   10.7862  -12.8736 C.2       1 <1>         0.2418 
      8 N8         25.4684   10.3540  -13.5755 N.am      1 <1>        -0.1418 
      9 C9         25.5092    9.0084  -13.5474 C.2       1 <1>         0.2355 
     10 O10        24.0720   11.9462  -12.6969 O.2       1 <1>        -0.3668 
     11 O11        26.3488    8.3050  -14.0820 O.2       1 <1>        -0.3726 
     12 C12        26.4486   11.2080  -14.2220 C.3       1 <1>         0.2214 
     13 O13        27.2587   11.8274  -13.2031 O.3       1 <1>        -0.2348 
     14 C14        27.0152   13.1284  -13.3061 C.2       1 <1>         0.2491 
     15 C15        26.0875   13.5114  -14.3649 C.2       1 <1>         0.0288 
     16 C16        25.7581   12.3506  -14.9280 C.2       1 <1>        -0.0059 
     17 C17        25.6227   14.8917  -14.7395 C.3       1 <1>        -0.0323 
     18 O18        27.5430   13.9426  -12.5682 O.2       1 <1>        -0.3691 
     19 N19        20.9091    8.0823  -10.4810 N.pl3     1 <1>        -0.2358 
     20 C20        19.9768    7.2239  -10.8025 C.2       1 <1>         0.2019 
     21 O21        20.0596    6.4983  -11.7794 O.2       1 <1>        -0.3789 
     22 C22        18.7415    7.1347   -9.9354 C.3       1 <1>         0.0429 
     23 C23        17.7255    6.0726  -10.4382 C.3       1 <1>        -0.0356 
     24 C24        16.4738    6.0036   -9.5213 C.3       1 <1>        -0.0538 
     25 C25        15.4622    4.9434  -10.0292 C.3       1 <1>        -0.0651 
     26 H1         21.9602   10.3873  -11.2281 H         1 <1>         0.0597 
     27 H2         22.4501    6.0909  -11.3164 H         1 <1>         0.0574 
     28 H3         24.4763    6.3252  -12.7473 H         1 <1>         0.0651 
     29 H4         27.0904   10.6479  -14.9225 H         1 <1>         0.1152 
     30 H5         25.0785   12.2360  -15.7713 H         1 <1>         0.0702 
     31 H6         25.6308   15.0119  -15.8331 H         1 <1>         0.0347 
     32 H7         26.2829   15.6498  -14.2921 H         1 <1>         0.0347 
     33 H8         24.5990   15.0435  -14.3664 H         1 <1>         0.0347 
     34 H9         20.7740    8.6975   -9.6647 H         1 <1>         0.2126 
     35 H10        18.2560    8.1230   -9.9204 H         1 <1>         0.0511 
     36 H11        19.0562    6.8804   -8.9111 H         1 <1>         0.0511 
     37 H12        18.2162    5.0853  -10.4616 H         1 <1>         0.0290 
     38 H13        17.4137    6.3283  -11.4646 H         1 <1>         0.0290 
     39 H14        15.9794    6.9891   -9.4954 H         1 <1>         0.0264 
     40 H15        16.7810    5.7443   -8.4943 H         1 <1>         0.0264 
     41 H16        15.9264    3.9449  -10.0442 H         1 <1>         0.0230 
     42 H17        15.1241    5.1914  -11.0476 H         1 <1>         0.0230 
     43 H18        14.5827    4.9107   -9.3667 H         1 <1>         0.0230 
@<TRIPOS>BOND
     1    2    1 ar   
     2    2    3 ar   
     3    3    4 ar   
     4    4    5 ar   
     5    6    5 ar   
     6    1    6 ar   
     7    6    7 1    
     8    7    8 am   
     9    9    8 am   
    10    5    9 1    
    11    7   10 2    
    12    9   11 2    
    13    8   12 1    
    14   12   13 1    
    15   13   14 1    
    16   15   14 1    
    17   16   15 2    
    18   12   16 1    
    19   15   17 1    
    20   14   18 2    
    21    2   19 1    
    22   19   20 1    
    23   20   21 2    
    24   20   22 1    
    25   22   23 1    
    26   23   24 1    
    27   24   25 1    
    28    1   26 1    
    29    3   27 1    
    30    4   28 1    
    31   12   29 1    
    32   16   30 1    
    33   17   31 1    
    34   17   32 1    
    35   17   33 1    
    36   19   34 1    
    37   22   35 1    
    38   22   36 1    
    39   23   37 1    
    40   23   38 1    
    41   24   39 1    
    42   24   40 1    
    43   25   41 1    
    44   25   42 1    
    45   25   43 1    
@<TRIPOS>SUBSTRUCTURE
     1 ****        2 TEMP              0 ****  ****    0 ROOT 
@<TRIPOS>NORMAL
@<TRIPOS>FF_PBC
FORCE_FIELD_SETUP_FEATURE Force Field Setup information
v1.0  0 0.000000 0.000000 0.000000 0.000000 0.000000 0.000000 NONE 0 0 0 0 1 0 0 0 0 0 0 0 0
