#	Name:			PISM00489
#	Creating user name:	baoopengkun
#	Creation time:		Wed Feb 27 21:20:37 2019

#	Modifying user name:	baoopengkun
#	Modification time:	Wed Feb 27 21:21:04 2019

@<TRIPOS>MOLECULE
PISM00489
    4     3     1     1     0
SMALL
GAST_HUCK


@<TRIPOS>ATOM
      1 C1         27.8164    9.1844   -7.1020 C.1       1 <1>        -0.1225 
      2 C2         26.8219    8.7469   -7.6213 C.1       1 <1>        -0.1225 
      3 H1         28.6888    9.5681   -6.6466 H         1 <1>         0.1225 
      4 H2         25.9495    8.3631   -8.0767 H         1 <1>         0.1225 
@<TRIPOS>BOND
     1    2    1 3    
     2    1    3 1    
     3    2    4 1    
@<TRIPOS>SUBSTRUCTURE
     1 ****        2 TEMP              0 ****  ****    0 ROOT 
@<TRIPOS>NORMAL
@<TRIPOS>FF_PBC
FORCE_FIELD_SETUP_FEATURE Force Field Setup information
v1.0  0 0.000000 0.000000 0.000000 0.000000 0.000000 0.000000 NONE 0 0 0 0 1 0 0 0 0 0 0 0 0
