#	Name:			PISM00310
#	Creating user name:	baoopengkun
#	Creation time:		Sun Dec 16 04:07:44 2018

#	Modifying user name:	baoopengkun
#	Modification time:	Sun Dec 16 04:09:28 2018

@<TRIPOS>MOLECULE
PISM00310
   36    37     1     1     0
SMALL
GAST_HUCK


@<TRIPOS>ATOM
      1 F1        -10.4336   16.4249   42.6912 F         1 <1>        -0.2222 
      2 C2         -9.8341   17.6141   42.4181 C.3       1 <1>         0.3725 
      3 F3         -9.8542   17.8301   41.0759 F         1 <1>        -0.2222 
      4 F4        -10.5380   18.6059   43.0279 F         1 <1>        -0.2222 
      5 C5         -8.3804   17.5742   42.9033 C.ar      1 <1>         0.0500 
      6 C6         -7.5034   16.6203   42.3753 C.ar      1 <1>         0.0624 
      7 C7         -6.1709   16.5874   42.7944 C.ar      1 <1>        -0.0261 
      8 C8         -5.7064   17.5061   43.7394 C.ar      1 <1>        -0.0096 
      9 C9         -6.5837   18.4413   44.3011 C.ar      1 <1>         0.0913 
     10 C10        -7.9136   18.4760   43.8674 C.ar      1 <1>        -0.0106 
     11 Cl11       -8.0547   15.4570   41.1852 Cl        1 <1>        -0.0513 
     12 N12        -6.1688   19.3187   45.2484 N.pl3     1 <1>        -0.2220 
     13 C13        -5.4423   18.9455   46.2702 C.2       1 <1>         0.3101 
     14 O14        -5.0954   17.7848   46.4257 O.2       1 <1>        -0.3393 
     15 C15        -5.0276   19.9438   47.2882 C.2       1 <1>         0.2929 
     16 O16        -3.8282   20.1056   47.4535 O.2       1 <1>        -0.3574 
     17 N17        -5.9352   20.6601   48.0077 N.am      1 <1>        -0.2610 
     18 C18        -7.3702   20.3747   47.8932 C.3       1 <1>         0.0348 
     19 C19        -8.0146   20.6335   49.2777 C.3       1 <1>        -0.0323 
     20 C20        -7.8439   22.1164   49.7136 C.3       1 <1>        -0.0494 
     21 C21        -6.5509   22.7482   49.1259 C.3       1 <1>        -0.0323 
     22 C22        -5.4434   21.6831   48.9349 C.3       1 <1>         0.0348 
     23 H1         -5.4945   15.8457   42.3812 H         1 <1>         0.0678 
     24 H2         -4.6595   17.4909   44.0249 H         1 <1>         0.0782 
     25 H3         -8.5854   19.2130   44.2942 H         1 <1>         0.0741 
     26 H4         -6.4451   20.3082   45.1625 H         1 <1>         0.2121 
     27 H5         -7.5737   19.3241   47.6260 H         1 <1>         0.0524 
     28 H6         -7.8379   21.0282   47.1400 H         1 <1>         0.0524 
     29 H7         -7.5036   19.9739   50.0001 H         1 <1>         0.0285 
     30 H8         -9.0837   20.3604   49.2728 H         1 <1>         0.0285 
     31 H9         -7.8211   22.1575   50.8161 H         1 <1>         0.0267 
     32 H10        -8.7085   22.7149   49.3790 H         1 <1>         0.0267 
     33 H11        -6.1993   23.5694   49.7733 H         1 <1>         0.0285 
     34 H12        -6.7651   23.1742   48.1308 H         1 <1>         0.0285 
     35 H13        -5.1872   21.2209   49.9017 H         1 <1>         0.0524 
     36 H14        -4.5449   22.1906   48.5436 H         1 <1>         0.0524 
@<TRIPOS>BOND
     1    2    1 1    
     2    2    3 1    
     3    2    4 1    
     4    2    5 1    
     5    5    6 ar   
     6    6    7 ar   
     7    7    8 ar   
     8    8    9 ar   
     9    9   10 ar   
    10    5   10 ar   
    11    6   11 1    
    12    9   12 1    
    13   12   13 1    
    14   13   14 2    
    15   13   15 1    
    16   15   16 2    
    17   15   17 am   
    18   17   18 1    
    19   18   19 1    
    20   19   20 1    
    21   20   21 1    
    22   21   22 1    
    23   17   22 1    
    24    7   23 1    
    25    8   24 1    
    26   10   25 1    
    27   12   26 1    
    28   18   27 1    
    29   18   28 1    
    30   19   29 1    
    31   19   30 1    
    32   20   31 1    
    33   20   32 1    
    34   21   33 1    
    35   21   34 1    
    36   22   35 1    
    37   22   36 1    
@<TRIPOS>SUBSTRUCTURE
     1 ****        2 TEMP              0 ****  ****    0 ROOT 
@<TRIPOS>NORMAL
@<TRIPOS>FF_PBC
FORCE_FIELD_SETUP_FEATURE Force Field Setup information
v1.0  0 0.000000 0.000000 0.000000 0.000000 0.000000 0.000000 NONE 0 0 0 0 1 0 0 0 0 0 0 0 0
