#	Name:			PISM00464
#	Creating user name:	Administrator
#	Creation time:		Sat Feb 23 00:08:02 2019

#	Modifying user name:	Administrator
#	Modification time:	Sat Feb 23 00:22:58 2019

@<TRIPOS>MOLECULE
PISM00464
   42    43     1     2     0
SMALL
GAST_HUCK


@<TRIPOS>ATOM
      1 C1          6.1201    0.6491    3.5210 C.2       1 PHENYL     -0.0038 
      2 N2          5.2895    0.1241    2.7226 N.2       1 PHENYL     -0.2468 
      3 N3          4.3139    1.0055    2.4206 N.pl3     1 PHENYL     -0.2257 
      4 C4          4.5315    2.1349    3.0415 C.2       1 PHENYL      0.0587 
      5 C5          5.6550    2.0196    3.7622 C.2       1 PHENYL     -0.0133 
      6 C6          6.3448    3.0221    4.6524 C.3       1 PHENYL      0.0433 
      7 N7          6.1436    2.6457    6.0446 N.am      1 PHENYL     -0.2366 
      8 S8          7.5100    2.9688    7.2789 S.o2      1 PHENYL      0.0518 
      9 O9          8.7130    2.3009    6.8258 O.2       1 PHENYL     -0.1531 
     10 O10         7.0049    2.7090    8.6115 O.2       1 PHENYL     -0.1531 
     11 C11         7.7179    4.7454    7.0894 C.3       1 PHENYL      0.1188 
     12 C           8.3834    5.2669    8.3687 C.ar      1 PHENYL     -0.0058 
     13 C           9.7639    5.1430    8.5650 C.ar      1 PHENYL      0.0430 
     14 C          10.3475    5.5947    9.7528 C.ar      1 PHENYL     -0.0540 
     15 C           9.5607    6.1854   10.7450 C.ar      1 PHENYL     -0.0543 
     16 C           8.1849    6.3170   10.5516 C.ar      1 PHENYL      0.0340 
     17 C           7.6015    5.8636    9.3652 C.ar      1 PHENYL     -0.0443 
     18 C18         7.3233   -0.0510    4.0867 C.3       1 PHENYL     -0.0319 
     19 C19         3.6092    3.3223    2.9162 C.3       1 PHENYL     -0.0085 
     20 C20         3.2000    0.7058    1.5338 C.3       1 PHENYL      0.0529 
     21 C21         4.9308    1.9881    6.5143 C.3       1 PHENYL      0.0190 
     22 H22        10.0159    6.5399   11.6648 H         1 PHENYL      0.0565 
     23 H1          5.9900    4.0491    4.4960 H         1 PHENYL      0.0535 
     24 H2          7.4177    3.0084    4.4120 H         1 PHENYL      0.0535 
     25 H3          6.7229    5.1927    6.9530 H         1 PHENYL      0.0684 
     26 H4          8.3168    4.9608    6.1933 H         1 PHENYL      0.0684 
     27 Cl27       10.7857    4.4204    7.3377 Cl        1 PHENYL     -0.0769 
     28 H28        11.4161    5.4829    9.9039 H         1 PHENYL      0.0605 
     29 Cl29        7.1921    7.0465   11.7978 Cl        1 PHENYL     -0.0723 
     30 H8          6.5311    5.9789    9.2338 H         1 PHENYL      0.0562 
     31 H9          7.8695    0.5910    4.7927 H         1 PHENYL      0.0367 
     32 H10         7.9954   -0.3393    3.2654 H         1 PHENYL      0.0367 
     33 H11         6.9913   -0.9563    4.6159 H         1 PHENYL      0.0367 
     34 H12         3.8912    4.1613    3.5645 H         1 PHENYL      0.0412 
     35 H13         2.5898    3.0161    3.1924 H         1 PHENYL      0.0412 
     36 H14         3.6100    3.6742    1.8740 H         1 PHENYL      0.0412 
     37 H15         2.2506    0.7493    2.0872 H         1 PHENYL      0.0585 
     38 H16         3.3235   -0.3094    1.1282 H         1 PHENYL      0.0585 
     39 H17         3.1750    1.4183    0.6965 H         1 PHENYL      0.0585 
     40 H18         5.0359    0.9004    6.3877 H         1 PHENYL      0.0443 
     41 H19         4.0493    2.3327    5.9537 H         1 PHENYL      0.0443 
     42 H20         4.7637    2.2052    7.5786 H         1 PHENYL      0.0443 
@<TRIPOS>BOND
     1    1    2 2    
     2    2    3 1    
     3    4    3 1    
     4    5    4 2    
     5    5    1 1    
     6    6    5 1    
     7    7    6 1    
     8    8    7 1    
     9    8    9 2    
    10    8   10 2    
    11   11    8 1    
    12   12   13 ar   
    13   12   17 ar   
    14   17   16 ar   
    15   16   15 ar   
    16   14   15 ar   
    17   13   14 ar   
    18   12   11 1    
    19    1   18 1    
    20    4   19 1    
    21    3   20 1    
    22    7   21 1    
    23   15   22 1    
    24    6   23 1    
    25    6   24 1    
    26   11   25 1    
    27   11   26 1    
    28   13   27 1    
    29   14   28 1    
    30   16   29 1    
    31   17   30 1    
    32   18   31 1    
    33   18   32 1    
    34   18   33 1    
    35   19   34 1    
    36   19   35 1    
    37   19   36 1    
    38   20   37 1    
    39   20   38 1    
    40   20   39 1    
    41   21   40 1    
    42   21   41 1    
    43   21   42 1    
@<TRIPOS>SUBSTRUCTURE
     1 PHENYL     12 PERM              0 ****  ****    0 ROOT 
@<TRIPOS>NORMAL
@<TRIPOS>FF_PBC
FORCE_FIELD_SETUP_FEATURE Force Field Setup information
v1.0  0 0.000000 0.000000 0.000000 0.000000 0.000000 0.000000 NONE 0 0 0 0 1 0 0 0 0 0 0 0 0
@<TRIPOS>RENDERING_ATTRS
ANTIALIASED_LINES 
*
