#	Name:			PISM00297
#	Creating user name:	malab
#	Creation time:		Fri Apr 05 16:49:12 2019

#	Modifying user name:	malab
#	Modification time:	Fri Apr 05 16:49:53 2019

@<TRIPOS>MOLECULE
PISM00297
   40    42     1     1     0
SMALL
GAST_HUCK


@<TRIPOS>ATOM
      1 C1         -3.3221    9.7025   47.7285 C.3       1 <1>        -0.0120 
      2 N2         -1.9017    9.3401   47.7594 N.am      1 <1>         0.0363 
      3 C3         -1.3734    8.3130   46.8620 C.3       1 <1>        -0.0120 
      4 C4         -2.5275    7.4796   46.2569 C.3       1 <1>         0.0395 
      5 N5         -3.4249    8.4181   45.5845 N.am      1 <1>        -0.2858 
      6 C6         -3.8647    9.6294   46.2750 C.3       1 <1>         0.0395 
      7 C7         -3.8540    8.1911   44.3108 C.2       1 <1>         0.1064 
      8 S8         -5.0140    9.2084   43.5586 S.2       1 <1>        -0.2661 
      9 C9         -3.3638    7.0809   43.4760 C.2       1 <1>         0.1637 
     10 O10        -4.1988    6.1206   43.0733 O.3       1 <1>        -0.2442 
     11 C11        -3.3768    5.3307   42.3710 C.2       1 <1>         0.1306 
     12 C12        -2.1045    5.7341   42.2936 C.2       1 <1>        -0.0405 
     13 C13        -2.0980    6.9693   43.0704 C.2       1 <1>        -0.0368 
     14 C14        -3.9142    4.0688   41.7253 C.ar      1 <1>         0.0167 
     15 C15        -3.0773    3.0855   41.1814 C.ar      1 <1>        -0.0515 
     16 C16        -3.6193    1.9457   40.5795 C.ar      1 <1>        -0.0478 
     17 C17        -5.0037    1.7678   40.5274 C.ar      1 <1>         0.0534 
     18 C18        -5.8459    2.7358   41.0805 C.ar      1 <1>         0.0539 
     19 C19        -5.3003    3.8774   41.6745 C.ar      1 <1>        -0.0377 
     20 Cl20       -5.6727    0.3355   39.7714 Cl        1 <1>        -0.0705 
     21 Cl21       -7.5848    2.5271   41.0325 Cl        1 <1>        -0.0704 
     22 C22        -1.0417    9.9145   48.6463 C.2       1 <1>         0.1051 
     23 O23         0.1472    9.6340   48.6437 O.2       1 <1>        -0.3916 
     24 C24        -1.4913   10.9266   49.6740 C.3       1 <1>         0.0097 
     25 H1         -3.5318   10.7204   48.0921 H         1 <1>         0.0000 
     26 H2         -3.8704    8.9910   48.3663 H         1 <1>         0.0000 
     27 H3         -0.7002    7.6243   47.4000 H         1 <1>         0.0000 
     28 H4         -0.8088    8.7983   46.0499 H         1 <1>         0.0000 
     29 H5         -3.0840    6.9759   47.0628 H         1 <1>         0.0000 
     30 H6         -2.1039    6.6921   45.6182 H         1 <1>         0.0000 
     31 H7         -4.9653    9.6886   46.3070 H         1 <1>         0.0000 
     32 H8         -3.4771   10.4984   45.7174 H         1 <1>         0.0000 
     33 H9         -1.2407    5.3004   41.7933 H         1 <1>         0.0000 
     34 H10        -1.2582    7.6346   43.2689 H         1 <1>         0.0000 
     35 H11        -1.9995    3.1845   41.2202 H         1 <1>         0.0000 
     36 H12        -2.9634    1.1941   40.1516 H         1 <1>         0.0000 
     37 H13        -5.9705    4.6188   42.0959 H         1 <1>         0.0000 
     38 H14        -1.7105   11.8878   49.1851 H         1 <1>         0.0000 
     39 H15        -0.6976   11.0973   50.4181 H         1 <1>         0.0000 
     40 H16        -2.3811   10.5696   50.2134 H         1 <1>         0.0000 
@<TRIPOS>BOND
     1    2    1 1    
     2    2    3 1    
     3    3    4 1    
     4    4    5 1    
     5    5    6 1    
     6    1    6 1    
     7    5    7 am   
     8    7    8 2    
     9    7    9 1    
    10    9   10 1    
    11   10   11 1    
    12   11   12 2    
    13   12   13 1    
    14    9   13 2    
    15   11   14 1    
    16   14   15 ar   
    17   15   16 ar   
    18   16   17 ar   
    19   17   18 ar   
    20   18   19 ar   
    21   14   19 ar   
    22   17   20 1    
    23   18   21 1    
    24    2   22 am   
    25   22   23 2    
    26   22   24 1    
    27    1   25 1    
    28    1   26 1    
    29    3   27 1    
    30    3   28 1    
    31    4   29 1    
    32    4   30 1    
    33    6   31 1    
    34    6   32 1    
    35   12   33 1    
    36   13   34 1    
    37   15   35 1    
    38   16   36 1    
    39   19   37 1    
    40   24   38 1    
    41   24   39 1    
    42   24   40 1    
@<TRIPOS>SUBSTRUCTURE
     1 ****        2 TEMP              0 ****  ****    0 ROOT 
@<TRIPOS>NORMAL
@<TRIPOS>FF_PBC
FORCE_FIELD_SETUP_FEATURE Force Field Setup information
v1.0  0 0.000000 0.000000 0.000000 0.000000 0.000000 0.000000 NONE 0 0 0 0 0 0 0 0 0 0 0 0 0
