#	Name:			PISM00318
#	Creating user name:	malab
#	Creation time:		Fri Apr 05 17:10:02 2019

#	Modifying user name:	malab
#	Modification time:	Fri Apr 05 17:10:31 2019

@<TRIPOS>MOLECULE
PISM00318
   90    92     1     1     0
SMALL
GAST_HUCK


@<TRIPOS>ATOM
      1 O1         -5.6851   25.6351  -22.0677 O.2       1 <1>        -0.4008 
      2 C2         -6.3697   25.3414  -21.1011 C.2       1 <1>         0.2580 
      3 N3         -7.7093   25.2948  -21.0835 N.am      1 <1>        -0.2671 
      4 C4         -8.2466   24.9131  -19.7878 C.3       1 <1>         0.0750 
      5 C5         -6.9567   24.7097  -18.9358 C.3       1 <1>         0.0775 
      6 N6         -5.9020   25.0150  -19.8887 N.am      1 <1>        -0.2668 
      7 C7         -9.0346   23.5832  -19.8418 C.3       1 <1>         0.0190 
      8 S8         -8.6486   22.8088  -18.2484 S.3       1 <1>        -0.1527 
      9 C9         -6.8954   23.2399  -18.4491 C.3       1 <1>         0.0302 
     10 C10        -6.0906   23.0743  -17.1334 C.3       1 <1>        -0.0388 
     11 C11        -5.9970   21.5884  -16.6924 C.3       1 <1>        -0.0499 
     12 C12        -5.2027   21.4509  -15.3652 C.3       1 <1>        -0.0360 
     13 C13        -5.1169   19.9716  -14.9026 C.3       1 <1>         0.0372 
     14 C14        -4.4132   19.8221  -13.5740 C.2       1 <1>         0.1760 
     15 O15        -3.9017   20.7971  -13.0458 O.2       1 <1>        -0.3971 
     16 N16        -4.3821   18.5912  -13.0135 N.am      1 <1>        -0.2870 
     17 C17        -3.7400   18.4002  -11.7152 C.3       1 <1>         0.0309 
     18 C18        -3.9907   16.9747  -11.1551 C.3       1 <1>        -0.0326 
     19 C19        -3.3704   16.7959   -9.7433 C.3       1 <1>        -0.0491 
     20 C20        -3.5819   15.3495   -9.2223 C.3       1 <1>        -0.0350 
     21 C21        -2.9958   15.1695   -7.7974 C.3       1 <1>         0.0473 
     22 C22        -3.1289   13.7283   -7.3664 C.2       1 <1>         0.2287 
     23 O23        -3.9765   13.4297   -6.5395 O.2       1 <1>        -0.3700 
     24 N24        -2.3334   12.8387   -7.8935 N.pl3     1 <1>        -0.1520 
     25 N25        -2.4351   11.5431   -7.5240 N.2       1 <1>        -0.1358 
     26 C26        -1.6321   11.0248   -6.6833 C.2       1 <1>         0.0968 
     27 C27        -0.5467   11.8567   -6.0431 C.3       1 <1>        -0.0038 
     28 C28         0.0971   11.0963   -4.8380 C.3       1 <1>        -0.0592 
     29 C29        -0.9631   11.1470   -3.6850 C.3       1 <1>        -0.0740 
     30 C30         1.3833   11.8784   -4.4328 C.3       1 <1>        -0.0740 
     31 C31         0.4477    9.6259   -5.2820 C.3       1 <1>         0.0098 
     32 C32        -0.8458    8.9268   -5.6751 C.2       1 <1>        -0.0885 
     33 C33        -1.7912    9.5996   -6.3445 C.2       1 <1>        -0.0136 
     34 C34        -1.0219    7.4698   -5.3028 C.3       1 <1>        -0.0428 
     35 H35        -6.9360   25.4209  -18.0928 H         1 <1>         0.0587 
     36 H36        -8.8694   25.7226  -19.3696 H         1 <1>         0.0584 
     37 C37         1.3087    8.7355   -4.3915 C.2       1 <1>        -0.1113 
     38 C38         1.5852    8.7984   -3.0809 C.2       1 <1>        -0.0326 
     39 C39         2.4530    7.8032   -2.4163 C.2       1 <1>         0.0083 
     40 C40         3.8012    7.4872   -3.0231 C.3       1 <1>        -0.0163 
     41 C41         2.0730    7.1881   -1.2861 C.2       1 <1>         0.0506 
     42 C42         0.7690    7.3683   -0.6018 C.2       1 <1>         0.2626 
     43 O43        -0.1737    7.8849   -1.1789 O.2       1 <1>        -0.3540 
     44 O44         0.5823    6.9602    0.6592 O.3       1 <1>        -0.2939 
     45 O45         1.2847    9.6529   -6.4599 O.3       1 <1>        -0.4814 
     46 H1         -8.3024   25.4965  -21.8647 H         1 <1>         0.1849 
     47 H2         -4.9331   24.9750  -19.6381 H         1 <1>         0.1849 
     48 H3         -8.6513   22.9355  -20.6456 H         1 <1>         0.0399 
     49 H4        -10.1169   23.7329  -19.9767 H         1 <1>         0.0399 
     50 H5         -6.4745   22.6029  -19.2444 H         1 <1>         0.0435 
     51 H6         -6.5740   23.6638  -16.3375 H         1 <1>         0.0277 
     52 H7         -5.0744   23.4711  -17.2907 H         1 <1>         0.0277 
     53 H8         -5.4973   21.0017  -17.4803 H         1 <1>         0.0267 
     54 H9         -7.0110   21.1820  -16.5491 H         1 <1>         0.0267 
     55 H10        -5.7053   22.0421  -14.5817 H         1 <1>         0.0290 
     56 H11        -4.1834   21.8489  -15.5015 H         1 <1>         0.0290 
     57 H12        -4.5763   19.3784  -15.6574 H         1 <1>         0.0502 
     58 H13        -6.1353   19.5635  -14.8012 H         1 <1>         0.0502 
     59 H14        -4.7902   17.8024  -13.4786 H         1 <1>         0.1850 
     60 H15        -4.1394   19.1363  -10.9984 H         1 <1>         0.0520 
     61 H16        -2.6558   18.5692  -11.8202 H         1 <1>         0.0520 
     62 H17        -3.5536   16.2377  -11.8490 H         1 <1>         0.0285 
     63 H18        -5.0777   16.7973  -11.1004 H         1 <1>         0.0285 
     64 H19        -3.8370   17.5092   -9.0444 H         1 <1>         0.0267 
     65 H20        -2.2902   17.0107   -9.7890 H         1 <1>         0.0267 
     66 H21        -3.0959   14.6460   -9.9177 H         1 <1>         0.0290 
     67 H22        -4.6593   15.1162   -9.1952 H         1 <1>         0.0290 
     68 H23        -3.5290   15.8262   -7.0906 H         1 <1>         0.0514 
     69 H24        -1.9312   15.4535   -7.7834 H         1 <1>         0.0514 
     70 H25        -1.6203   13.1104   -8.5881 H         1 <1>         0.2513 
     71 H26        -0.9805   12.8066   -5.6912 H         1 <1>         0.0436 
     72 H27         0.1939   12.1195   -6.8135 H         1 <1>         0.0436 
     73 H28        -1.1037   12.1856   -3.3478 H         1 <1>         0.0219 
     74 H29        -0.6902   10.5619   -2.8039 H         1 <1>         0.0219 
     75 H30        -1.9452   10.7766   -4.0127 H         1 <1>         0.0219 
     76 H31         2.1312   11.8349   -5.2395 H         1 <1>         0.0219 
     77 H32         1.8459   11.4825   -3.5216 H         1 <1>         0.0219 
     78 H33         1.1447   12.9372   -4.2473 H         1 <1>         0.0219 
     79 H34        -2.7145    9.1141   -6.6592 H         1 <1>         0.0958 
     80 H37        -2.0049    7.0799   -5.6073 H         1 <1>         0.0402 
     81 H38        -0.9376    7.3467   -4.2124 H         1 <1>         0.0402 
     82 H39        -0.2529    6.8616   -5.8006 H         1 <1>         0.0402 
     83 H40         1.7752    7.8913   -4.9027 H         1 <1>         0.0471 
     84 H41         1.2121    9.5580   -2.4064 H         1 <1>         0.0968 
     85 H42         4.5809    7.4631   -2.2464 H         1 <1>         0.0428 
     86 H43         4.0897    8.2444   -3.7679 H         1 <1>         0.0428 
     87 H44         3.7588    6.5042   -3.5157 H         1 <1>         0.0428 
     88 H45         2.7765    6.4880   -0.8338 H         1 <1>         0.0849 
     89 H46         1.3492    6.5733    1.0666 H         1 <1>         0.2515 
     90 H47         0.8755    9.9660   -7.2581 H         1 <1>         0.1757 
@<TRIPOS>BOND
     1    2    1 2    
     2    2    3 am   
     3    3    4 1    
     4    4    5 1    
     5    5    6 1    
     6    2    6 am   
     7    4    7 1    
     8    7    8 1    
     9    8    9 1    
    10    5    9 1    
    11    9   10 1    
    12   10   11 1    
    13   11   12 1    
    14   12   13 1    
    15   13   14 1    
    16   14   15 2    
    17   14   16 am   
    18   16   17 1    
    19   17   18 1    
    20   18   19 1    
    21   19   20 1    
    22   20   21 1    
    23   21   22 1    
    24   22   23 2    
    25   22   24 1    
    26   24   25 1    
    27   25   26 2    
    28   26   27 1    
    29   27   28 1    
    30   28   29 1    
    31   28   30 1    
    32   28   31 1    
    33   31   32 1    
    34   32   33 2    
    35   26   33 1    
    36   32   34 1    
    37    5   35 1    
    38    4   36 1    
    39   31   37 1    
    40   37   38 2    
    41   38   39 1    
    42   39   40 1    
    43   39   41 2    
    44   41   42 1    
    45   42   43 2    
    46   42   44 1    
    47   31   45 1    
    48    3   46 1    
    49    6   47 1    
    50    7   48 1    
    51    7   49 1    
    52    9   50 1    
    53   10   51 1    
    54   10   52 1    
    55   11   53 1    
    56   11   54 1    
    57   12   55 1    
    58   12   56 1    
    59   13   57 1    
    60   13   58 1    
    61   16   59 1    
    62   17   60 1    
    63   17   61 1    
    64   18   62 1    
    65   18   63 1    
    66   19   64 1    
    67   19   65 1    
    68   20   66 1    
    69   20   67 1    
    70   21   68 1    
    71   21   69 1    
    72   24   70 1    
    73   27   71 1    
    74   27   72 1    
    75   29   73 1    
    76   29   74 1    
    77   29   75 1    
    78   30   76 1    
    79   30   77 1    
    80   30   78 1    
    81   33   79 1    
    82   34   80 1    
    83   34   81 1    
    84   34   82 1    
    85   37   83 1    
    86   38   84 1    
    87   40   85 1    
    88   40   86 1    
    89   40   87 1    
    90   41   88 1    
    91   44   89 1    
    92   45   90 1    
@<TRIPOS>SUBSTRUCTURE
     1 ****        2 TEMP              0 ****  ****    0 ROOT 
@<TRIPOS>NORMAL
@<TRIPOS>FF_PBC
FORCE_FIELD_SETUP_FEATURE Force Field Setup information
v1.0  0 0.000000 0.000000 0.000000 0.000000 0.000000 0.000000 NONE 0 0 0 0 0 0 0 0 0 0 0 0 0
