#	Name:			M00401
#	Creating user name:	XiyangLee
#	Creation time:		Tue Aug 31 18:10:57 2021

#	Modifying user name:	XiyangLee
#	Modification time:	Tue Aug 31 18:11:49 2021

@<TRIPOS>MOLECULE
M00401
   38    39     1     1     1
SMALL
GAST_HUCK
****
From 3DB ct
@<TRIPOS>ATOM
      1 Cl          5.8138   -0.1051   -0.1620 Cl        1 <1>        -0.0777 
      2 C           4.1171    0.3223   -0.0764 C.ar      1 <1>         0.0318 
      3 C           3.4973    0.4825    1.1656 C.ar      1 <1>        -0.0564 
      4 H           4.0740    0.3614    2.0767 H         1 <1>         0.0601 
      5 C           2.1371    0.7973    1.2328 C.ar      1 <1>        -0.0666 
      6 H           1.6648    0.9388    2.1997 H         1 <1>         0.0547 
      7 C           1.3847    0.9269    0.0606 C.ar      1 <1>        -0.0490 
      8 C          -0.1017    1.1991    0.1550 C.2       1 <1>        -0.0349 
      9 H          -0.2497    2.1622    0.6301 H         1 <1>         0.0330 
     10 C          -1.0911    0.3923   -0.2815 C.2       1 <1>         0.0933 
     11 N          -2.3582    0.7620   -0.1994 N.pl3     1 <1>        -0.2028 
     12 C          -3.4633    0.0758   -0.6789 C.ar      1 <1>         0.0600 
     13 H          -3.5061   -0.8568   -1.2226 H         1 <1>         0.0940 
     14 C          -4.6107    0.7998   -0.3680 C.ar      1 <1>        -0.0166 
     15 H          -5.6350    0.5209   -0.5893 H         1 <1>         0.0430 
     16 N          -4.2048    1.9184    0.2594 N.ar      1 <1>        -0.3296 
     17 C          -2.8616    1.9413    0.3740 C.ar      1 <1>         0.1124 
     18 H          -2.3384    2.7632    0.8451 H         1 <1>         0.1113 
     19 C          -0.7447   -0.9724   -0.8781 C.3       1 <1>         0.0258 
     20 H           0.2662   -0.9589   -1.2986 H         1 <1>         0.0518 
     21 H          -1.3746   -1.1947   -1.7479 H         1 <1>         0.0518 
     22 C          -0.7458   -2.1658    0.1396 C.3       1 <1>        -0.0216 
     23 C           0.3135   -1.9240    1.2548 C.3       1 <1>        -0.0576 
     24 H           1.3152   -1.7882    0.8205 H         1 <1>         0.0237 
     25 H           0.0529   -1.0337    1.8450 H         1 <1>         0.0237 
     26 H           0.3618   -2.7812    1.9438 H         1 <1>         0.0237 
     27 C          -2.1286   -2.3716    0.8252 C.3       1 <1>        -0.0576 
     28 H          -2.8920   -2.6746    0.0954 H         1 <1>         0.0237 
     29 H          -2.4566   -1.4543    1.3360 H         1 <1>         0.0237 
     30 H          -2.0679   -3.1706    1.5801 H         1 <1>         0.0237 
     31 C          -0.3732   -3.4781   -0.6157 C.3       1 <1>        -0.0576 
     32 H          -1.1018   -3.6864   -1.4142 H         1 <1>         0.0237 
     33 H           0.6253   -3.3996   -1.0728 H         1 <1>         0.0237 
     34 H          -0.3657   -4.3375    0.0723 H         1 <1>         0.0237 
     35 C           2.0236    0.8308   -1.1805 C.ar      1 <1>        -0.0666 
     36 H           1.4669    1.0140   -2.0944 H         1 <1>         0.0547 
     37 C           3.3814    0.5057   -1.2500 C.ar      1 <1>        -0.0564 
     38 H           3.8668    0.3969   -2.2143 H         1 <1>         0.0601 
@<TRIPOS>BOND
     1    1    2 1    
     2    2    3 ar   
     3    3    4 1    
     4    3    5 ar   
     5    5    6 1    
     6    5    7 ar   
     7    7    8 1    
     8    8    9 1    
     9    8   10 2    
    10   10   11 1    
    11   11   12 ar   
    12   12   13 1    
    13   12   14 ar   
    14   14   15 1    
    15   14   16 ar   
    16   16   17 ar   
    17   17   18 1    
    18   17   11 ar   
    19   10   19 1    
    20   19   20 1    
    21   19   21 1    
    22   19   22 1    
    23   22   23 1    
    24   23   24 1    
    25   23   25 1    
    26   23   26 1    
    27   22   27 1    
    28   27   28 1    
    29   27   29 1    
    30   27   30 1    
    31   22   31 1    
    32   31   32 1    
    33   31   33 1    
    34   31   34 1    
    35    7   35 ar   
    36   35   36 1    
    37   35   37 ar   
    38   37   38 1    
    39   37    2 ar   
@<TRIPOS>SUBSTRUCTURE
     1 ****        1 TEMP              0 ****  ****    0 ROOT 
@<TRIPOS>SET
UNITY_3DHIT     STATIC     ATOMS    <user>   **** Atoms matching 3D or FLEX Search
0
@<TRIPOS>NORMAL
@<TRIPOS>FF_PBC
FORCE_FIELD_SETUP_FEATURE Force Field Setup information
v1.0  0 0.000000 0.000000 0.000000 0.000000 0.000000 0.000000 NONE 0 0 0 0 1 0 0 0 0 0 0 0 0
@<TRIPOS>UNITY_BOND_ATTR
9 1
S N
