#	Name:			PISM00797.1
#	Creating user name:	baoopengkun
#	Creation time:		Sat Dec 15 02:06:24 2018

#	Modifying user name:	baoopengkun
#	Modification time:	Sat Dec 15 02:09:09 2018

@<TRIPOS>MOLECULE
PISM00797.1
   41    44     1     1     0
SMALL
GAST_HUCK


@<TRIPOS>ATOM
      1 C1          6.9827   12.0835  -51.7540 C.ar      1 <1>        -0.0703 
      2 C2          6.2293   11.8176  -52.9046 C.ar      1 <1>        -0.0763 
      3 C3          5.5387   12.8420  -53.5721 C.ar      1 <1>        -0.0742 
      4 C4          5.5753   14.1663  -53.1140 C.ar      1 <1>        -0.0412 
      5 C5          6.3255   14.4271  -51.9666 C.ar      1 <1>         0.0663 
      6 C6          7.0038   13.4056  -51.3149 C.ar      1 <1>        -0.0096 
      7 C7          7.6464   14.1409  -50.1697 C.2       1 <1>        -0.0156 
      8 C8          7.2892   15.4144  -50.2909 C.2       1 <1>         0.1040 
      9 N9          6.5193   15.6066  -51.3289 N.pl3     1 <1>        -0.2675 
     10 C10         5.9590   16.8896  -51.7348 C.3       1 <1>         0.0368 
     11 C11         7.8894   16.1812  -49.2041 C.2       1 <1>         0.1399 
     12 C12         8.6658   15.1926  -48.4335 C.2       1 <1>         0.0305 
     13 C13         8.5292   13.7891  -49.0041 C.3       1 <1>         0.0054 
     14 O14         7.7885   17.3746  -48.9697 O.2       1 <1>        -0.4040 
     15 C15         7.8049   12.8129  -48.0460 C.3       1 <1>        -0.0510 
     16 C16         9.4057   15.5011  -47.3639 C.2       1 <1>         0.0831 
     17 O17        10.0873   14.5352  -46.7318 O.3       1 <1>        -0.2667 
     18 C18        10.8721   14.9979  -45.6180 C.3       1 <1>         0.2400 
     19 C19        12.0272   15.8530  -46.0897 C.2       1 <1>        -0.0007 
     20 C20        13.1884   15.2523  -45.8373 C.2       1 <1>         0.0293 
     21 C21        12.7945   14.0113  -45.1816 C.2       1 <1>         0.2496 
     22 O22        11.4885   13.8391  -45.0225 O.3       1 <1>        -0.2302 
     23 C23        14.5783   15.7424  -46.1388 C.3       1 <1>        -0.0323 
     24 O24        13.6058   13.1869  -44.7969 O.2       1 <1>        -0.3691 
     25 H1          7.5242   11.3050  -51.2277 H         1 <1>         0.0563 
     26 H2          6.1797   10.8020  -53.2852 H         1 <1>         0.0517 
     27 H3          4.9639   12.6044  -54.4621 H         1 <1>         0.0552 
     28 H4          5.0414   14.9557  -53.6312 H         1 <1>         0.0546 
     29 H5          4.8603   16.8280  -51.7275 H         1 <1>         0.0554 
     30 H6          6.3009   17.1348  -52.7516 H         1 <1>         0.0554 
     31 H7          6.2672   17.7014  -51.0581 H         1 <1>         0.0554 
     32 H8          9.4982   13.3947  -49.3495 H         1 <1>         0.0507 
     33 H9          8.4278   12.6051  -47.1632 H         1 <1>         0.0265 
     34 H10         7.6023   11.8627  -48.5634 H         1 <1>         0.0265 
     35 H11         6.8489   13.2452  -47.7120 H         1 <1>         0.0265 
     36 H12         9.4132   16.5499  -47.0576 H         1 <1>         0.1132 
     37 H13        10.2619   15.5048  -44.8511 H         1 <1>         0.1214 
     38 H14        11.9327   16.8240  -46.5739 H         1 <1>         0.0706 
     39 H15        15.3065   15.2395  -45.4848 H         1 <1>         0.0347 
     40 H16        14.6441   16.8285  -45.9754 H         1 <1>         0.0347 
     41 H17        14.8250   15.5193  -47.1874 H         1 <1>         0.0347 
@<TRIPOS>BOND
     1    2    1 ar   
     2    2    3 ar   
     3    3    4 ar   
     4    4    5 ar   
     5    5    6 ar   
     6    1    6 ar   
     7    6    7 1    
     8    7    8 2    
     9    8    9 1    
    10    9   10 1    
    11    5    9 1    
    12    8   11 1    
    13   11   12 1    
    14   12   13 1    
    15    7   13 1    
    16   11   14 2    
    17   13   15 1    
    18   12   16 2    
    19   16   17 1    
    20   17   18 1    
    21   18   19 1    
    22   19   20 2    
    23   20   21 1    
    24   21   22 1    
    25   18   22 1    
    26   20   23 1    
    27   21   24 2    
    28    1   25 1    
    29    2   26 1    
    30    3   27 1    
    31    4   28 1    
    32   10   29 1    
    33   10   30 1    
    34   10   31 1    
    35   13   32 1    
    36   15   33 1    
    37   15   34 1    
    38   15   35 1    
    39   16   36 1    
    40   18   37 1    
    41   19   38 1    
    42   23   39 1    
    43   23   40 1    
    44   23   41 1    
@<TRIPOS>SUBSTRUCTURE
     1 ****        2 TEMP              0 ****  ****    0 ROOT 
@<TRIPOS>NORMAL
@<TRIPOS>FF_PBC
FORCE_FIELD_SETUP_FEATURE Force Field Setup information
v1.0  0 0.000000 0.000000 0.000000 0.000000 0.000000 0.000000 NONE 0 0 0 0 1 0 0 0 0 0 0 0 0
