#	Name:			PISM00196
#	Creating user name:	14062
#	Creation time:		Wed Jun 19 15:12:34 2019

#	Modifying user name:	14062
#	Modification time:	Wed Jun 19 15:18:34 2019

@<TRIPOS>MOLECULE
PISM00196
   45    46     1     1     0
SMALL
GAST_HUCK


@<TRIPOS>ATOM
      1 C1         -7.0704    0.1264   -0.4220 C.ar      1 BENZYL     -0.0701 
      2 C1         -5.7959    0.6551   -0.2191 C.ar      1 BENZYL     -0.0627 
      3 C2         -4.9468    0.8731   -1.3098 C.ar      1 BENZYL     -0.0239 
      4 C3         -5.3774    0.5766   -2.6135 C.ar      1 BENZYL     -0.0096 
      5 C4         -4.4403    0.6783   -3.6542 C.ar      1 BENZYL     -0.0546 
      6 C5         -3.1610    1.1940   -3.4288 C.ar      1 BENZYL     -0.0625 
      7 C6         -2.7731    1.5632   -2.1406 C.ar      1 BENZYL     -0.0629 
      8 C7         -3.6638    1.3863   -1.0806 C.ar      1 BENZYL     -0.0568 
      9 C9         -6.7129    0.1868   -2.8277 C.ar      1 BENZYL     -0.0094 
     10 C10        -7.5157   -0.1198   -1.7213 C.ar      1 BENZYL     -0.0580 
     11 C11        -7.3441    0.0870   -4.2332 C.3       1 BENZYL      0.0949 
     12 C12        -8.7860    0.5432   -4.2390 C.2       1 BENZYL      0.2469 
     13 O13        -9.0887    1.7074   -4.4483 O.2       1 BENZYL     -0.3669 
     14 O14        -9.7149   -0.3877   -4.0139 O.3       1 BENZYL     -0.2909 
     15 C15        -7.1766   -1.3541   -4.7920 C.3       1 BENZYL     -0.0217 
     16 H1         -7.7127   -0.0902    0.4266 H         1 BENZYL      0.0596 
     17 H2         -5.4755    0.8875    0.7920 H         1 BENZYL      0.0546 
     18 H3         -4.6666    0.3550   -4.6622 H         1 BENZYL      0.0628 
     19 H4         -2.4650    1.3065   -4.2550 H         1 BENZYL      0.0602 
     20 H5         -1.7862    1.9806   -1.9642 H         1 BENZYL      0.0616 
     21 H6         -3.3447    1.6521   -0.0774 H         1 BENZYL      0.0609 
     22 H7         -8.4999   -0.5546   -1.8517 H         1 BENZYL      0.0535 
     23 H8         -6.8580    0.8048   -4.9097 H         1 BENZYL      0.0722 
     24 H9        -10.5886   -0.0131   -4.0390 H         1 BENZYL      0.2541 
     25 C25        -7.6541   -1.4717   -6.2664 C.3       1 BENZYL     -0.0487 
     26 H11        -7.7440   -2.0543   -4.1579 H         1 BENZYL      0.0316 
     27 H12        -6.1152   -1.6443   -4.7387 H         1 BENZYL      0.0316 
     28 H10        -7.0771   -0.7722   -6.8933 H         1 BENZYL      0.0268 
     29 H13        -8.7193   -1.1994   -6.3385 H         1 BENZYL      0.0268 
     30 C30        -7.4656   -2.9159   -6.8066 C.3       1 BENZYL     -0.0528 
     31 H14        -8.0390   -3.6172   -6.1781 H         1 BENZYL      0.0265 
     32 H15        -6.3998   -3.1919   -6.7477 H         1 BENZYL      0.0265 
     33 C33        -7.9454   -3.0379   -8.2791 C.3       1 BENZYL     -0.0531 
     34 H16        -7.3735   -2.3362   -8.9085 H         1 BENZYL      0.0265 
     35 H17        -9.0118   -2.7648   -8.3392 H         1 BENZYL      0.0265 
     36 C36        -7.7547   -4.4828   -8.8167 C.3       1 BENZYL     -0.0533 
     37 H18        -8.3261   -5.1847   -8.1872 H         1 BENZYL      0.0265 
     38 H19        -6.6883   -4.7563   -8.7584 H         1 BENZYL      0.0265 
     39 C39        -8.2351   -4.6086  -10.2882 C.3       1 BENZYL     -0.0559 
     40 H20        -7.6643   -3.9114  -10.9240 H         1 BENZYL      0.0263 
     41 H21        -9.3026   -4.3393  -10.3525 H         1 BENZYL      0.0263 
     42 C42        -8.0444   -6.0523  -10.8217 C.3       1 BENZYL     -0.0653 
     43 H22        -8.6220   -6.7659  -10.2136 H         1 BENZYL      0.0230 
     44 H23        -6.9814   -6.3374  -10.7871 H         1 BENZYL      0.0230 
     45 H24        -8.3913   -6.1207  -11.8650 H         1 BENZYL      0.0230 
@<TRIPOS>BOND
     1    2    3 ar   
     2    3    4 ar   
     3    3    8 ar   
     4    8    7 ar   
     5    7    6 ar   
     6    6    5 ar   
     7    5    4 ar   
     8    2    1 ar   
     9    4    9 ar   
    10    9   10 ar   
    11    1   10 ar   
    12    9   11 1    
    13   11   12 1    
    14   12   13 2    
    15   12   14 1    
    16   11   15 1    
    17    1   16 1    
    18    2   17 1    
    19    5   18 1    
    20    6   19 1    
    21    7   20 1    
    22    8   21 1    
    23   10   22 1    
    24   11   23 1    
    25   14   24 1    
    26   15   25 1    
    27   15   26 1    
    28   15   27 1    
    29   25   28 1    
    30   25   29 1    
    31   25   30 1    
    32   30   31 1    
    33   30   32 1    
    34   30   33 1    
    35   33   34 1    
    36   33   35 1    
    37   33   36 1    
    38   36   37 1    
    39   36   38 1    
    40   36   39 1    
    41   39   40 1    
    42   39   41 1    
    43   39   42 1    
    44   42   43 1    
    45   42   44 1    
    46   42   45 1    
@<TRIPOS>SUBSTRUCTURE
     1 BENZYL      2 PERM              0 ****  ****    0 ROOT 
@<TRIPOS>NORMAL
@<TRIPOS>FF_PBC
FORCE_FIELD_SETUP_FEATURE Force Field Setup information
v1.0  0 0.000000 0.000000 0.000000 0.000000 0.000000 0.000000 NONE 0 0 0 0 1 0 0 0 0 0 0 0 0
