#	Name:			PISM00958
#	Creating user name:	baoopengkun
#	Creation time:		Thu Dec 13 10:35:31 2018

#	Modifying user name:	baoopengkun
#	Modification time:	Thu Dec 13 10:45:44 2018

@<TRIPOS>MOLECULE
PISM00958
   41    43     1     1     0
SMALL
GAST_HUCK


@<TRIPOS>ATOM
      1 C1         -9.8561    8.0553   -5.2590 C.ar      1 <1>        -0.0318 
      2 C2        -10.0719    9.3971   -5.5810 C.ar      1 <1>        -0.0199 
      3 C3        -11.3546    9.8253   -5.9289 C.ar      1 <1>         0.0694 
      4 C4        -12.4169    8.9178   -5.9501 C.ar      1 <1>        -0.0229 
      5 C5        -12.2186    7.5733   -5.6069 C.ar      1 <1>        -0.0185 
      6 C6        -10.9238    7.1533   -5.2759 C.ar      1 <1>        -0.0369 
      7 C7        -13.3662    6.5405   -5.5800 C.3       1 <1>         0.0876 
      8 O8        -13.0914    5.6824   -4.4530 O.3       1 <1>        -0.4201 
      9 C9        -13.3030    5.6721   -6.8726 C.3       1 <1>        -0.0350 
     10 C10       -14.7708    7.1871   -5.3682 C.3       1 <1>         0.0827 
     11 N11       -14.7607    8.1659   -4.2887 N.pl3     1 <1>        -0.1836 
     12 N12       -13.7827    8.3514   -3.3577 N.2       1 <1>        -0.1909 
     13 C13       -14.0246    9.3186   -2.5539 C.2       1 <1>         0.0618 
     14 N14       -15.2914    9.7733   -3.0565 N.2       1 <1>        -0.2870 
     15 C15       -15.6482    9.0802   -4.0396 C.2       1 <1>         0.1269 
     16 C16       -13.2415    6.4823   -8.1967 C.3       1 <1>        -0.0237 
     17 C17       -13.1503    5.5079   -9.3800 C.ar      1 <1>        -0.0434 
     18 C18       -11.9039    5.1242   -9.8886 C.ar      1 <1>        -0.0597 
     19 C19       -11.8244    4.2523  -10.9785 C.ar      1 <1>        -0.0546 
     20 C20       -12.9915    3.7513  -11.5606 C.ar      1 <1>         0.0330 
     21 C21       -14.2378    4.1206  -11.0482 C.ar      1 <1>        -0.0546 
     22 C22       -14.3161    4.9936   -9.9592 C.ar      1 <1>        -0.0597 
     23 Cl23      -12.8926    2.6620  -12.9291 Cl        1 <1>        -0.0771 
     24 Cl24      -11.6321   11.5053   -6.3406 Cl        1 <1>        -0.0626 
     25 H1         -8.8596    7.7136   -4.9949 H         1 <1>         0.0698 
     26 H2         -9.2494   10.1048   -5.5623 H         1 <1>         0.0862 
     27 H3        -13.3921    9.2863   -6.2394 H         1 <1>         0.0857 
     28 H4        -10.7366    6.1135   -5.0265 H         1 <1>         0.0852 
     29 H5        -13.7099    4.9678   -4.3462 H         1 <1>         0.1963 
     30 H6        -14.1717    4.9948   -6.8986 H         1 <1>         0.0220 
     31 H7        -12.3945    5.0496   -6.8232 H         1 <1>         0.0220 
     32 H8        -15.5048    6.4080   -5.1129 H         1 <1>         0.0572 
     33 H9        -15.1269    7.6808   -6.2822 H         1 <1>         0.0572 
     34 H10       -13.4308    9.6912   -1.7207 H         1 <1>         0.0863 
     35 H11       -16.5723    9.2415   -4.5935 H         1 <1>         0.1361 
     36 H12       -12.3624    7.1452   -8.2079 H         1 <1>         0.0420 
     37 H13       -14.1326    7.1126   -8.3285 H         1 <1>         0.0420 
     38 H14       -10.9906    5.5005   -9.4386 H         1 <1>         0.0557 
     39 H15       -10.8565    3.9626  -11.3747 H         1 <1>         0.0606 
     40 H16       -15.1440    3.7278  -11.4978 H         1 <1>         0.0606 
     41 H17       -15.2888    5.2694   -9.5644 H         1 <1>         0.0557 
@<TRIPOS>BOND
     1    2    1 ar   
     2    2    3 ar   
     3    3    4 ar   
     4    4    5 ar   
     5    5    6 ar   
     6    1    6 ar   
     7    5    7 1    
     8    7    8 1    
     9    7    9 1    
    10    7   10 1    
    11   10   11 1    
    12   11   12 1    
    13   12   13 2    
    14   13   14 1    
    15   14   15 2    
    16   11   15 1    
    17    9   16 1    
    18   16   17 1    
    19   17   18 ar   
    20   18   19 ar   
    21   19   20 ar   
    22   20   21 ar   
    23   21   22 ar   
    24   17   22 ar   
    25   20   23 1    
    26    3   24 1    
    27    1   25 1    
    28    2   26 1    
    29    4   27 1    
    30    6   28 1    
    31    8   29 1    
    32    9   30 1    
    33    9   31 1    
    34   10   32 1    
    35   10   33 1    
    36   13   34 1    
    37   15   35 1    
    38   16   36 1    
    39   16   37 1    
    40   18   38 1    
    41   19   39 1    
    42   21   40 1    
    43   22   41 1    
@<TRIPOS>SUBSTRUCTURE
     1 ****        2 TEMP              0 ****  ****    0 ROOT 
@<TRIPOS>NORMAL
@<TRIPOS>FF_PBC
FORCE_FIELD_SETUP_FEATURE Force Field Setup information
v1.0  0 0.000000 0.000000 0.000000 0.000000 0.000000 0.000000 NONE 0 0 0 0 1 0 0 0 0 0 0 0 0
