#	Name:			PISM00549
#	Creating user name:	baoopengkun
#	Creation time:		Sat Dec 15 14:51:35 2018

#	Modifying user name:	baoopengkun
#	Modification time:	Sat Dec 15 14:56:34 2018

@<TRIPOS>MOLECULE
PISM00549
   29    30     1     1     0
SMALL
GAST_HUCK


@<TRIPOS>ATOM
      1 H1          4.6764    8.4198   15.8166 H         1 <1>         0.0475 
      2 H2          5.7405    7.8541   17.1363 H         1 <1>         0.0475 
      3 H3          7.7520    8.7582   16.0022 H         1 <1>         0.0312 
      4 H4          6.5503   10.0616   16.2336 H         1 <1>         0.0312 
      5 H5          7.5671   10.0946   13.9238 H         1 <1>         0.0475 
      6 H6          5.8032    9.8178   13.8367 H         1 <1>         0.0475 
      7 C7          5.6895    8.0599   16.0545 C.3       1 <1>         0.0166 
      8 C8          6.7575    9.1226   15.6932 C.3       1 <1>        -0.0242 
      9 C9          6.7601    9.3840   14.1662 C.3       1 <1>         0.0166 
     10 C10         6.9895    8.1005   13.4151 C.2       1 <1>         0.1090 
     11 C11         6.6096    6.7904   13.9810 C.2       1 <1>         0.0864 
     12 C12         5.9362    6.7833   15.2959 C.2       1 <1>         0.1090 
     13 O13         5.5698    5.7281   15.7873 O.2       1 <1>        -0.4046 
     14 O14         7.5057    8.1378   12.3083 O.2       1 <1>        -0.4046 
     15 C15         6.8630    5.6461   13.3238 C.2       1 <1>         0.0696 
     16 N16         7.4536    5.6134   12.1533 N.pl3     1 <1>        -0.2537 
     17 C17         7.7072    4.4501   11.5028 C.ar      1 <1>         0.0718 
     18 C18         8.2117    3.3314   12.1781 C.ar      1 <1>        -0.0358 
     19 C19         8.4186    2.1281   11.4970 C.ar      1 <1>        -0.0703 
     20 C20         8.1603    2.0457   10.1261 C.ar      1 <1>        -0.0724 
     21 C21         7.6959    3.1698    9.4381 C.ar      1 <1>        -0.0703 
     22 C22         7.4707    4.3658   10.1260 C.ar      1 <1>        -0.0358 
     23 H13         7.5089    3.1134    8.3699 H         1 <1>         0.0590 
     24 H7          6.5454    4.7193   13.8064 H         1 <1>         0.1321 
     25 H8          7.7195    6.5058   11.6911 H         1 <1>         0.2281 
     26 H9          8.4571    3.3887   13.2333 H         1 <1>         0.0546 
     27 H10         8.7833    1.2567   12.0327 H         1 <1>         0.0590 
     28 H11         8.3212    1.1114    9.5968 H         1 <1>         0.0527 
     29 H12         7.1050    5.2334    9.5860 H         1 <1>         0.0546 
@<TRIPOS>BOND
     1    7    1 1    
     2    7    2 1    
     3    8    3 1    
     4    8    4 1    
     5    9    5 1    
     6    9    6 1    
     7   15   24 1    
     8    7    8 1    
     9    8    9 1    
    10    9   10 1    
    11   11   10 1    
    12   12   11 1    
    13    7   12 1    
    14   12   13 2    
    15   10   14 2    
    16   11   15 2    
    17   15   16 1    
    18   16   17 1    
    19   17   18 ar   
    20   18   19 ar   
    21   19   20 ar   
    22   21   20 ar   
    23   22   21 ar   
    24   17   22 ar   
    25   21   23 1    
    26   16   25 1    
    27   18   26 1    
    28   19   27 1    
    29   20   28 1    
    30   22   29 1    
@<TRIPOS>SUBSTRUCTURE
     1 ****        7 TEMP              0 ****  ****    0 ROOT 
@<TRIPOS>NORMAL
@<TRIPOS>FF_PBC
FORCE_FIELD_SETUP_FEATURE Force Field Setup information
v1.0  0 0.000000 0.000000 0.000000 0.000000 0.000000 0.000000 NONE 0 0 0 0 1 0 0 0 0 0 0 0 0
