#	Name:			PISM00300
#	Creating user name:	malab
#	Creation time:		Fri Apr 05 17:01:35 2019

#	Modifying user name:	malab
#	Modification time:	Fri Apr 05 17:03:05 2019

@<TRIPOS>MOLECULE
PISM00300
   70    71     1     1     0
SMALL
GAST_HUCK


@<TRIPOS>ATOM
      1 N1        -25.6462   26.8793   49.2915 N.2       1 <1>        -0.1720 
      2 C2        -26.8548   27.2782   49.1602 C.2       1 <1>         0.0659 
      3 N3        -27.2155   26.5805   47.9618 N.2       1 <1>        -0.2820 
      4 C4        -26.2529   25.8943   47.5420 C.2       1 <1>         0.1500 
      5 N5        -25.2119   26.0236   48.3186 N.pl3     1 <1>        -0.1212 
      6 C6        -24.0284   25.4655   48.2141 C.2       1 <1>         0.1382 
      7 C7        -23.0454   25.8727   49.3073 C.3       1 <1>         0.1339 
      8 C8        -22.2731   27.2061   49.0134 C.3       1 <1>         0.0049 
      9 C9        -23.2230   28.4228   48.7999 C.3       1 <1>        -0.0551 
     10 C10       -21.3282   27.5215   50.2127 C.3       1 <1>        -0.0551 
     11 C11       -21.4040   27.0404   47.7309 C.3       1 <1>        -0.0551 
     12 C12       -23.7019   24.6092   47.2283 C.2       1 <1>        -0.0324 
     13 C13       -22.3657   23.9098   47.1072 C.ar      1 <1>        -0.0499 
     14 C14       -21.9495   22.9863   48.0720 C.ar      1 <1>        -0.0662 
     15 C15       -20.6818   22.4036   47.9862 C.ar      1 <1>        -0.0550 
     16 C16       -19.8418   22.7128   46.9127 C.ar      1 <1>         0.0165 
     17 C17       -20.2798   23.5886   45.9153 C.ar      1 <1>        -0.0550 
     18 C18       -21.5447   24.1765   46.0071 C.ar      1 <1>        -0.0662 
     19 C19       -18.5273   22.1284   46.8329 C.1       1 <1>        -0.0716 
     20 C20       -17.4289   21.6411   46.7652 C.1       1 <1>        -0.0738 
     21 C21       -16.0987   21.0521   46.6827 C.3       1 <1>         0.1070 
     22 O22       -15.9463   20.4722   45.3730 O.3       1 <1>        -0.3655 
     23 C23       -14.6555   19.8635   45.1648 C.3       1 <1>         0.0722 
     24 C24       -14.6184   19.2707   43.7383 C.3       1 <1>         0.0711 
     25 O25       -13.3250   18.6692   43.5229 O.3       1 <1>        -0.3752 
     26 C26       -13.1844   18.0757   42.2154 C.3       1 <1>         0.0711 
     27 C27       -11.7672   17.4720   42.0961 C.3       1 <1>         0.0710 
     28 O28       -11.6341   16.8765   40.7890 O.3       1 <1>        -0.3775 
     29 C29       -10.3427   16.2788   40.5603 C.3       1 <1>         0.0478 
     30 C30       -10.3392   15.6812   39.1310 C.3       1 <1>        -0.0297 
     31 C31        -8.9781   15.0161   38.7893 C.3       1 <1>        -0.0538 
     32 C32        -8.9871   14.4221   37.3567 C.3       1 <1>        -0.0652 
     33 O33       -23.6693   25.8711   50.6055 O.3       1 <1>        -0.3710 
     34 H1        -27.4397   27.9537   49.7830 H         1 <1>         0.0882 
     35 H2        -26.3859   25.3073   46.6359 H         1 <1>         0.1391 
     36 H3        -22.2726   25.1040   49.4289 H         1 <1>         0.0854 
     37 H4        -22.6385   29.3302   48.5838 H         1 <1>         0.0238 
     38 H5        -23.8238   28.6261   49.6980 H         1 <1>         0.0238 
     39 H6        -23.8986   28.2536   47.9484 H         1 <1>         0.0238 
     40 H7        -20.6175   26.6975   50.3794 H         1 <1>         0.0238 
     41 H8        -21.9074   27.6693   51.1369 H         1 <1>         0.0238 
     42 H9        -20.7485   28.4384   50.0250 H         1 <1>         0.0238 
     43 H10       -20.7082   26.1934   47.8319 H         1 <1>         0.0238 
     44 H11       -20.8072   27.9461   47.5431 H         1 <1>         0.0238 
     45 H12       -22.0421   26.8714   46.8514 H         1 <1>         0.0238 
     46 H13       -24.3738   24.3387   46.4189 H         1 <1>         0.0317 
     47 H14       -22.6127   22.7166   48.8884 H         1 <1>         0.0545 
     48 H15       -20.3501   21.7099   48.7524 H         1 <1>         0.0608 
     49 H16       -19.6374   23.8125   45.0694 H         1 <1>         0.0608 
     50 H17       -21.8872   24.8439   45.2226 H         1 <1>         0.0545 
     51 H18       -16.0139   20.2905   47.4735 H         1 <1>         0.0692 
     52 H19       -15.3621   21.8511   46.8596 H         1 <1>         0.0692 
     53 H20       -14.4778   19.0509   45.8882 H         1 <1>         0.0583 
     54 H21       -13.8477   20.6077   45.2582 H         1 <1>         0.0583 
     55 H22       -14.8027   20.0821   43.0152 H         1 <1>         0.0583 
     56 H23       -15.4239   18.5233   43.6477 H         1 <1>         0.0583 
     57 H24       -13.3124   18.8296   41.4213 H         1 <1>         0.0583 
     58 H25       -13.9226   17.2709   42.0648 H         1 <1>         0.0583 
     59 H26       -11.6368   16.7187   42.8903 H         1 <1>         0.0583 
     60 H27       -11.0282   18.2766   42.2429 H         1 <1>         0.0583 
     61 H28       -10.1522   15.4771   41.2930 H         1 <1>         0.0560 
     62 H29        -9.5465   17.0370   40.6422 H         1 <1>         0.0560 
     63 H30       -10.5504   16.4881   38.4101 H         1 <1>         0.0287 
     64 H31       -11.1473   14.9348   39.0580 H         1 <1>         0.0287 
     65 H32        -8.7686   14.2103   39.5125 H         1 <1>         0.0263 
     66 H33        -8.1721   15.7651   38.8639 H         1 <1>         0.0263 
     67 H34        -9.7719   13.6553   37.2637 H         1 <1>         0.0230 
     68 H35        -8.0141   13.9566   37.1328 H         1 <1>         0.0230 
     69 H36        -9.1758   15.2132   36.6141 H         1 <1>         0.0230 
     70 H37       -24.4024   26.4766   50.6592 H         1 <1>         0.2142 
@<TRIPOS>BOND
     1    2    1 2    
     2    2    3 1    
     3    3    4 2    
     4    4    5 1    
     5    1    5 1    
     6    5    6 1    
     7    6    7 1    
     8    7    8 1    
     9    8    9 1    
    10    8   10 1    
    11    8   11 1    
    12    6   12 2    
    13   12   13 1    
    14   13   14 ar   
    15   14   15 ar   
    16   15   16 ar   
    17   16   17 ar   
    18   17   18 ar   
    19   13   18 ar   
    20   16   19 1    
    21   19   20 3    
    22   20   21 1    
    23   21   22 1    
    24   22   23 1    
    25   23   24 1    
    26   24   25 1    
    27   25   26 1    
    28   26   27 1    
    29   27   28 1    
    30   28   29 1    
    31   29   30 1    
    32   30   31 1    
    33   31   32 1    
    34    7   33 1    
    35    2   34 1    
    36    4   35 1    
    37    7   36 1    
    38    9   37 1    
    39    9   38 1    
    40    9   39 1    
    41   10   40 1    
    42   10   41 1    
    43   10   42 1    
    44   11   43 1    
    45   11   44 1    
    46   11   45 1    
    47   12   46 1    
    48   14   47 1    
    49   15   48 1    
    50   17   49 1    
    51   18   50 1    
    52   21   51 1    
    53   21   52 1    
    54   23   53 1    
    55   23   54 1    
    56   24   55 1    
    57   24   56 1    
    58   26   57 1    
    59   26   58 1    
    60   27   59 1    
    61   27   60 1    
    62   29   61 1    
    63   29   62 1    
    64   30   63 1    
    65   30   64 1    
    66   31   65 1    
    67   31   66 1    
    68   32   67 1    
    69   32   68 1    
    70   32   69 1    
    71   33   70 1    
@<TRIPOS>SUBSTRUCTURE
     1 ****        2 TEMP              0 ****  ****    0 ROOT 
@<TRIPOS>NORMAL
@<TRIPOS>FF_PBC
FORCE_FIELD_SETUP_FEATURE Force Field Setup information
v1.0  0 0.000000 0.000000 0.000000 0.000000 0.000000 0.000000 NONE 0 0 0 0 1 0 0 0 0 0 0 0 0
