#	Name:			PISM00878
#	Creating user name:	baoopengkun
#	Creation time:		Thu Dec 13 23:15:37 2018

#	Modifying user name:	baoopengkun
#	Modification time:	Fri Dec 14 00:08:36 2018

@<TRIPOS>MOLECULE
PISM00878
   26    27     1     1     0
SMALL
GAST_HUCK


@<TRIPOS>ATOM
      1 Cl1         3.9010    1.0640   -0.6009 Cl        1 <1>        -0.0820 
      2 C2          2.7144    2.5248   -2.5830 C.ar      1 <1>        -0.0314 
      3 C3          2.3410    2.7995   -3.9072 C.ar      1 <1>         0.1203 
      4 C4          2.7207    1.8908   -4.9065 C.ar      1 <1>        -0.0450 
      5 C5          3.4534    0.7424   -4.5921 C.ar      1 <1>        -0.0429 
      6 C6          3.8209    0.4850   -3.2704 C.ar      1 <1>         0.0988 
      7 C7          3.4482    1.3787   -2.2641 C.ar      1 <1>         0.0575 
      8 O8          1.3260    4.1066   -5.3723 O.2       1 <1>        -0.1159 
      9 O9          4.5549   -0.6583   -2.9619 O.3       1 <1>        -0.2788 
     10 C10         5.9693   -0.4314   -2.9915 C.3       1 <1>         0.2333 
     11 O11         6.3676    0.0129   -4.3045 O.3       1 <1>        -0.2317 
     12 C12         7.1336   -0.9585   -4.7842 C.2       1 <1>         0.2494 
     13 C13         7.3572   -2.0845   -3.8838 C.2       1 <1>         0.0291 
     14 C14         6.6587   -1.7588   -2.7979 C.2       1 <1>        -0.0023 
     15 C15         8.1802   -3.3209   -4.1219 C.3       1 <1>        -0.0323 
     16 O16         7.6194   -0.9023   -5.9007 O.2       1 <1>        -0.3691 
     17 H1          2.4406    3.1978   -1.7776 H         1 <1>         0.0496 
     18 N18         1.6293    3.9183   -4.2140 N.pl3     1 <1>         0.1145 
     19 H3          2.4528    2.0622   -5.9442 H         1 <1>         0.0494 
     20 H4          6.2896    0.2942   -2.2254 H         1 <1>         0.1194 
     21 H5          6.5853   -2.3655   -1.8963 H         1 <1>         0.0705 
     22 H6          7.5497   -4.2148   -4.0045 H         1 <1>         0.0347 
     23 H7          9.0052   -3.3627   -3.3954 H         1 <1>         0.0347 
     24 H8          8.5998   -3.3114   -5.1391 H         1 <1>         0.0347 
     25 O25         1.3319    4.6741   -3.3144 O.2       1 <1>        -0.1159 
     26 H2          3.7416    0.0452   -5.3726 H         1 <1>         0.0511 
@<TRIPOS>BOND
     1    7    1 1    
     2    3    2 ar   
     3    4    3 ar   
     4    5    4 ar   
     5    6    5 ar   
     6    6    7 ar   
     7    2    7 ar   
     8   18    8 2    
     9    6    9 1    
    10    9   10 1    
    11   10   11 1    
    12   11   12 1    
    13   12   13 1    
    14   13   14 2    
    15   10   14 1    
    16   13   15 1    
    17   12   16 2    
    18    2   17 1    
    19    3   18 1    
    20    4   19 1    
    21   10   20 1    
    22   14   21 1    
    23   15   22 1    
    24   15   23 1    
    25   15   24 1    
    26   18   25 2    
    27    5   26 1    
@<TRIPOS>SUBSTRUCTURE
     1 ****        2 TEMP              0 ****  ****    0 ROOT 
@<TRIPOS>NORMAL
@<TRIPOS>FF_PBC
FORCE_FIELD_SETUP_FEATURE Force Field Setup information
v1.0  0 0.000000 0.000000 0.000000 0.000000 0.000000 0.000000 NONE 0 0 0 0 1 0 0 0 0 0 0 0 0
