#	Name:			PISM01160
#	Creating user name:	baoopengkun
#	Creation time:		Tue Dec 18 16:00:08 2018

#	Modifying user name:	baoopengkun
#	Modification time:	Tue Dec 18 16:01:21 2018

@<TRIPOS>MOLECULE
PISM01160
   38    40     1     1     0
SMALL
GAST_HUCK


@<TRIPOS>ATOM
      1 O1         -2.5058    6.8498    9.8073 O.2       1 <1>        -0.3688 
      2 C2         -2.1550    6.0167    8.9869 C.2       1 <1>         0.2496 
      3 O3         -2.3696    4.7130    9.1672 O.3       1 <1>        -0.2915 
      4 C4         -1.4553    6.3908    7.7043 C.3       1 <1>         0.1211 
      5 C5         -0.1173    5.6335    7.5631 C.3       1 <1>         0.0312 
      6 S6          0.6914    6.4902    6.1842 S.3       1 <1>        -0.1251 
      7 C7         -0.1049    8.0807    6.5764 C.3       1 <1>         0.0878 
      8 N8         -1.0863    7.8210    7.6499 N.3       1 <1>        -0.2729 
      9 C9         -0.7350    8.7018    5.3172 C.ar      1 <1>        -0.0227 
     10 C10        -0.6235   10.0774    5.0848 C.ar      1 <1>        -0.0645 
     11 C11        -1.1828   10.6548    3.9412 C.ar      1 <1>        -0.0645 
     12 C12        -1.8766    9.8692    3.0140 C.ar      1 <1>        -0.0227 
     13 C13        -1.9898    8.4943    3.2470 C.ar      1 <1>        -0.0645 
     14 C14        -1.4276    7.9163    4.3888 C.ar      1 <1>        -0.0645 
     15 C15        -2.5003   10.5065    1.7607 C.3       1 <1>         0.0878 
     16 N16        -1.7468   10.2435    0.5171 N.3       1 <1>        -0.2729 
     17 C17        -2.6322   10.1909   -0.6742 C.3       1 <1>         0.1211 
     18 C18        -4.0886   10.5039   -0.2389 C.3       1 <1>         0.0312 
     19 S19        -4.1855    9.9038    1.4673 S.3       1 <1>        -0.1251 
     20 C20        -2.5591    8.8892   -1.4559 C.2       1 <1>         0.2496 
     21 O21        -2.2397    8.8854   -2.6325 O.2       1 <1>        -0.3688 
     22 O22        -2.8476    7.7282   -0.8610 O.3       1 <1>        -0.2915 
     23 H1         -2.8129    4.5528    9.9933 H         1 <1>         0.2540 
     24 H2         -2.1238    6.1313    6.8672 H         1 <1>         0.0729 
     25 H3         -0.2484    4.5605    7.3540 H         1 <1>         0.0420 
     26 H4          0.4958    5.7667    8.4680 H         1 <1>         0.0420 
     27 H5          0.6794    8.7360    6.9864 H         1 <1>         0.0728 
     28 H6         -1.9601    8.4560    7.5655 H         1 <1>         0.1284 
     29 H7         -0.1003   10.7106    5.7945 H         1 <1>         0.0540 
     30 H8         -1.0714   11.7224    3.7798 H         1 <1>         0.0540 
     31 H9         -2.5155    7.8619    2.5406 H         1 <1>         0.0540 
     32 H10        -1.5370    6.8488    4.5436 H         1 <1>         0.0540 
     33 H11        -2.5742   11.5988    1.8834 H         1 <1>         0.0728 
     34 H12        -1.1433    9.3483    0.6038 H         1 <1>         0.1284 
     35 H13        -2.2911   10.9823   -1.3623 H         1 <1>         0.0729 
     36 H14        -4.8476   10.0315   -0.8818 H         1 <1>         0.0420 
     37 H15        -4.2667   11.5910   -0.2107 H         1 <1>         0.0420 
     38 H16        -3.0928    7.8031    0.0508 H         1 <1>         0.2540 
@<TRIPOS>BOND
     1    2    1 2    
     2    2    3 1    
     3    2    4 1    
     4    4    5 1    
     5    5    6 1    
     6    6    7 1    
     7    7    8 1    
     8    4    8 1    
     9    7    9 1    
    10    9   10 ar   
    11   10   11 ar   
    12   11   12 ar   
    13   12   13 ar   
    14   13   14 ar   
    15    9   14 ar   
    16   12   15 1    
    17   15   16 1    
    18   16   17 1    
    19   17   18 1    
    20   18   19 1    
    21   15   19 1    
    22   17   20 1    
    23   20   21 2    
    24   20   22 1    
    25    3   23 1    
    26    4   24 1    
    27    5   25 1    
    28    5   26 1    
    29    7   27 1    
    30    8   28 1    
    31   10   29 1    
    32   11   30 1    
    33   13   31 1    
    34   14   32 1    
    35   15   33 1    
    36   16   34 1    
    37   17   35 1    
    38   18   36 1    
    39   18   37 1    
    40   22   38 1    
@<TRIPOS>SUBSTRUCTURE
     1 ****        2 TEMP              0 ****  ****    0 ROOT 
@<TRIPOS>NORMAL
@<TRIPOS>FF_PBC
FORCE_FIELD_SETUP_FEATURE Force Field Setup information
v1.0  0 0.000000 0.000000 0.000000 0.000000 0.000000 0.000000 NONE 0 0 0 0 1 0 0 0 0 0 0 0 0
