#	Name:			PISM01053.1
#	Creating user name:	malab
#	Creation time:		Thu Jul 04 18:27:40 2019

#	Modifying user name:	malab
#	Modification time:	Thu Jul 04 18:33:22 2019

@<TRIPOS>MOLECULE
PISM01053.1
   48    49     1     1     0
SMALL
GAST_HUCK


@<TRIPOS>ATOM
      1 C1         -0.4431    9.6345   36.8881 C.3       1 <1>        -0.1025 
      2 C2         -1.2193   10.6648   37.7628 C.3       1 <1>        -0.1056 
      3 C3         -2.7468   10.4923   37.6175 C.3       1 <1>        -0.0399 
      4 C4         -3.1232   10.7543   36.1414 C.3       1 <1>         0.0352 
      5 C5         -2.2312   10.0345   35.1541 C.2       1 <1>         0.0179 
      6 C6         -1.0321    9.5266   35.4910 C.2       1 <1>        -0.0702 
      7 C7          1.0469   10.0889   36.8342 C.3       1 <1>        -0.1223 
      8 C8         -0.5015    8.2075   37.5125 C.3       1 <1>        -0.1223 
      9 H9         -3.0573    9.4809   37.9192 H         1 <1>         0.0307 
     10 C10        -0.2371    8.8055   34.4777 C.2       1 <1>        -0.0855 
     11 C11        -0.6452    7.6281   33.9903 C.2       1 <1>        -0.0661 
     12 C12         0.1071    6.8603   32.9759 C.2       1 <1>         0.0819 
     13 C13        -2.7923    9.9362   33.7487 C.3       1 <1>         0.0256 
     14 H14        -3.5506    9.1394   33.7207 H         1 <1>         0.0689 
     15 C15        -0.5730    6.2278   32.0100 C.2       1 <1>         0.1117 
     16 C16         1.5879    6.7793   32.9959 C.2       1 <1>         0.2420 
     17 O17        -1.9129    6.3166   31.9786 O.3       1 <1>        -0.2456 
     18 C18        -2.5368    5.6370   30.8734 C.3       1 <1>         0.2473 
     19 O19        -3.9575    5.8225   31.0293 O.3       1 <1>        -0.2289 
     20 C20        -4.3394    6.5388   29.9797 C.2       1 <1>         0.2497 
     21 O21        -5.4947    6.8969   29.8303 O.2       1 <1>        -0.3691 
     22 C22        -3.2873    6.8582   29.0222 C.2       1 <1>         0.0294 
     23 C23        -2.2008    6.3066   29.5589 C.2       1 <1>         0.0008 
     24 C24        -3.4001    7.6259   27.7332 C.3       1 <1>        -0.0323 
     25 H1         -0.9654   11.6899   37.4455 H         1 <1>         0.0057 
     26 H2         -0.9324   10.5633   38.8223 H         1 <1>         0.0057 
     27 H3         -3.2735   11.2094   38.2701 H         1 <1>         0.0307 
     28 H4         -3.0386   11.8325   35.9305 H         1 <1>         0.0723 
     29 H5         -4.1743   10.4568   35.9947 H         1 <1>         0.0723 
     30 H6          1.1368   11.0342   36.2770 H         1 <1>         0.0017 
     31 H7          1.6910    9.3410   36.3486 H         1 <1>         0.0017 
     32 H8          1.4347   10.2469   37.8525 H         1 <1>         0.0017 
     33 H10        -0.1482    8.2253   38.5547 H         1 <1>         0.0017 
     34 H11         0.1399    7.5116   36.9509 H         1 <1>         0.0017 
     35 H12        -1.5197    7.7941   37.4960 H         1 <1>         0.0017 
     36 H13         0.6919    9.2555   34.1285 H         1 <1>         0.0435 
     37 H15        -1.5875    7.2164   34.3549 H         1 <1>         0.0568 
     38 H16        -2.0363    9.7238   32.9794 H         1 <1>         0.0689 
     39 H17        -3.2722   10.8866   33.4708 H         1 <1>         0.0689 
     40 H18        -0.0061    5.6560   31.2707 H         1 <1>         0.1365 
     41 O41         2.1861    6.5216   31.9652 O.2       1 <1>        -0.3738 
     42 O42         2.2981    6.9654   34.1125 O.3       1 <1>        -0.2980 
     43 H19         1.7780    7.0954   34.8956 H         1 <1>         0.2515 
     44 H22        -2.3192    4.5553   30.8608 H         1 <1>         0.1231 
     45 H23        -1.2113    6.3433   29.1050 H         1 <1>         0.0707 
     46 H24        -2.7180    8.4889   27.7527 H         1 <1>         0.0347 
     47 H25        -4.4296    7.9881   27.5920 H         1 <1>         0.0347 
     48 H26        -3.1327    6.9732   26.8888 H         1 <1>         0.0347 
@<TRIPOS>BOND
     1    2    1 1    
     2    2    3 1    
     3    3    4 1    
     4    4    5 1    
     5    5    6 2    
     6    1    6 1    
     7    1    7 1    
     8    1    8 1    
     9    3    9 1    
    10    6   10 1    
    11   10   11 2    
    12   11   12 1    
    13    5   13 1    
    14   13   14 1    
    15   12   15 2    
    16   12   16 1    
    17   15   17 1    
    18   17   18 1    
    19   18   19 1    
    20   19   20 1    
    21   20   21 2    
    22   20   22 1    
    23   22   23 2    
    24   18   23 1    
    25   22   24 1    
    26    2   25 1    
    27    2   26 1    
    28    3   27 1    
    29    4   28 1    
    30    4   29 1    
    31    7   30 1    
    32    7   31 1    
    33    7   32 1    
    34    8   33 1    
    35    8   34 1    
    36    8   35 1    
    37   10   36 1    
    38   11   37 1    
    39   13   38 1    
    40   13   39 1    
    41   15   40 1    
    42   16   41 2    
    43   16   42 1    
    44   42   43 1    
    45   18   44 1    
    46   23   45 1    
    47   24   46 1    
    48   24   47 1    
    49   24   48 1    
@<TRIPOS>SUBSTRUCTURE
     1 ****        2 TEMP              0 ****  ****    0 ROOT 
@<TRIPOS>NORMAL
@<TRIPOS>FF_PBC
FORCE_FIELD_SETUP_FEATURE Force Field Setup information
v1.0  0 0.000000 0.000000 0.000000 0.000000 0.000000 0.000000 NONE 0 0 0 0 1 0 0 0 0 0 0 0 0
