#	Name:			PISM00972
#	Creating user name:	baoopengkun
#	Creation time:		Thu Dec 13 11:32:36 2018

#	Modifying user name:	baoopengkun
#	Modification time:	Thu Dec 13 11:33:53 2018

@<TRIPOS>MOLECULE
PISM00972
   31    32     1     1     0
SMALL
GAST_HUCK


@<TRIPOS>ATOM
      1 C1         -0.2238   12.9122   -1.9774 C.ar      1 <1>        -0.0429 
      2 C2         -0.7755   13.1505   -0.7134 C.ar      1 <1>        -0.0603 
      3 C3         -0.1295   13.9990    0.1906 C.ar      1 <1>        -0.0686 
      4 C4          1.0709   14.6189   -0.1671 C.ar      1 <1>        -0.0687 
      5 C5          1.6217   14.3908   -1.4311 C.ar      1 <1>        -0.0686 
      6 C6          0.9744   13.5418   -2.3337 C.ar      1 <1>        -0.0603 
      7 C7         -0.9269   11.9712   -2.9659 C.3       1 <1>        -0.0163 
      8 C8         -1.9034   12.7882   -3.8496 C.3       1 <1>        -0.0098 
      9 C9         -2.6187   11.8640   -4.8682 C.3       1 <1>         0.1100 
     10 O10        -1.7392   11.4633   -5.9287 O.3       1 <1>        -0.2703 
     11 C11        -2.5053   12.0048   -6.8510 C.2       1 <1>         0.2401 
     12 C12        -3.5589   12.5335   -5.9313 C.3       1 <1>         0.0905 
     13 C13        -3.6822   14.0804   -5.9341 C.3       1 <1>        -0.0320 
     14 C14        -4.5466   14.5555   -7.1304 C.3       1 <1>        -0.0627 
     15 O15        -2.3811   12.0452   -8.0628 O.2       1 <1>        -0.3700 
     16 H1         -1.7100   12.6782   -0.4276 H         1 <1>         0.0557 
     17 H2         -0.5603   14.1770    1.1713 H         1 <1>         0.0599 
     18 H3          1.5744   15.2762    0.5354 H         1 <1>         0.0559 
     19 H4          2.5528   14.8736   -1.7120 H         1 <1>         0.0599 
     20 H5          1.4075   13.3751   -3.3148 H         1 <1>         0.0557 
     21 H6         -1.4729   11.1909   -2.4120 H         1 <1>         0.0427 
     22 H7         -0.1799   11.4676   -3.6007 H         1 <1>         0.0427 
     23 H8         -1.3232   13.5635   -4.3728 H         1 <1>         0.0317 
     24 H9         -2.6555   13.2755   -3.2090 H         1 <1>         0.0317 
     25 H10        -3.0956   10.9907   -4.3903 H         1 <1>         0.0680 
     26 H11        -4.5138   12.0001   -6.0609 H         1 <1>         0.0583 
     27 H12        -2.6930   14.5587   -6.0116 H         1 <1>         0.0292 
     28 H13        -4.1602   14.4029   -4.9950 H         1 <1>         0.0292 
     29 H14        -5.5613   14.1320   -7.0669 H         1 <1>         0.0231 
     30 H15        -4.0905   14.2381   -8.0812 H         1 <1>         0.0231 
     31 H16        -4.6265   15.6543   -7.1295 H         1 <1>         0.0231 
@<TRIPOS>BOND
     1    2    1 ar   
     2    2    3 ar   
     3    3    4 ar   
     4    4    5 ar   
     5    5    6 ar   
     6    1    6 ar   
     7    1    7 1    
     8    7    8 1    
     9    8    9 1    
    10    9   10 1    
    11   10   11 1    
    12   11   12 1    
    13    9   12 1    
    14   12   13 1    
    15   13   14 1    
    16   11   15 2    
    17    2   16 1    
    18    3   17 1    
    19    4   18 1    
    20    5   19 1    
    21    6   20 1    
    22    7   21 1    
    23    7   22 1    
    24    8   23 1    
    25    8   24 1    
    26    9   25 1    
    27   12   26 1    
    28   13   27 1    
    29   13   28 1    
    30   14   29 1    
    31   14   30 1    
    32   14   31 1    
@<TRIPOS>SUBSTRUCTURE
     1 ****        2 TEMP              0 ****  ****    0 ROOT 
@<TRIPOS>NORMAL
@<TRIPOS>FF_PBC
FORCE_FIELD_SETUP_FEATURE Force Field Setup information
v1.0  0 0.000000 0.000000 0.000000 0.000000 0.000000 0.000000 NONE 0 0 0 0 1 0 0 0 0 0 0 0 0
