#	Name:			PISM00912
#	Creating user name:	baoopengkun
#	Creation time:		Fri Dec 14 10:31:16 2018

#	Modifying user name:	baoopengkun
#	Modification time:	Fri Dec 14 10:43:55 2018

@<TRIPOS>MOLECULE
PISM00912
   34    36     1     1     0
SMALL
GAST_HUCK


@<TRIPOS>ATOM
      1 C1         21.3850   12.7836   -6.9142 C.ar      1 <1>         0.0873 
      2 C2         21.5004   13.5293   -5.7341 C.ar      1 <1>        -0.0294 
      3 C3         21.9816   14.8476   -5.7533 C.ar      1 <1>        -0.0620 
      4 C4         22.3533   15.4632   -6.9556 C.ar      1 <1>        -0.0488 
      5 C5         22.2144   14.7176   -8.1257 C.ar      1 <1>         0.0636 
      6 C6         21.7377   13.4147   -8.1072 C.ar      1 <1>         0.0945 
      7 C7         21.7178   12.9698   -9.5481 C.2       1 <1>         0.2371 
      8 N8         22.1758   13.9623  -10.3352 N.am      1 <1>        -0.1423 
      9 C9         22.4882   15.0292   -9.5761 C.2       1 <1>         0.2414 
     10 O10        21.3438   11.8704   -9.9176 O.2       1 <1>        -0.3740 
     11 O11        22.9274   16.0924   -9.9787 O.2       1 <1>        -0.3670 
     12 C12        22.2702   13.9070  -11.7832 C.3       1 <1>         0.2213 
     13 O13        20.9382   13.9714  -12.3301 O.3       1 <1>        -0.2348 
     14 C14        20.7574   12.8096  -12.9467 C.2       1 <1>         0.2491 
     15 C15        21.8932   11.8949  -12.9081 C.2       1 <1>         0.0288 
     16 C16        22.8130   12.5665  -12.2181 C.2       1 <1>        -0.0059 
     17 C17        22.0010   10.5245  -13.5181 C.3       1 <1>        -0.0323 
     18 O18        19.7131   12.5368  -13.5133 O.2       1 <1>        -0.3691 
     19 N19        20.9448   11.5048   -6.8886 N.pl3     1 <1>        -0.2342 
     20 C20        21.7288   10.4880   -7.1231 C.2       1 <1>         0.1994 
     21 C21        23.1941   10.6658   -7.4381 C.3       1 <1>         0.0315 
     22 O22        21.2860    9.3520   -7.0915 O.2       1 <1>        -0.3790 
     23 H1         21.2150   13.0755   -4.7902 H         1 <1>         0.0578 
     24 H2         22.0682   15.4004   -4.8225 H         1 <1>         0.0632 
     25 H3         22.7331   16.4793   -6.9840 H         1 <1>         0.0584 
     26 H4         22.8835   14.7274  -12.1922 H         1 <1>         0.1152 
     27 H5         23.8125   12.2002  -11.9882 H         1 <1>         0.0702 
     28 H6         21.7613    9.7691  -12.7550 H         1 <1>         0.0347 
     29 H7         23.0209   10.3497  -13.8921 H         1 <1>         0.0347 
     30 H8         21.2927   10.4268  -14.3544 H         1 <1>         0.0347 
     31 H9         19.9562   11.3222   -6.6597 H         1 <1>         0.2133 
     32 H10        23.3226   10.9501   -8.4913 H         1 <1>         0.0475 
     33 H11        23.7284    9.7186   -7.2690 H         1 <1>         0.0475 
     34 H12        23.6480   11.4328   -6.7938 H         1 <1>         0.0475 
@<TRIPOS>BOND
     1    2    1 ar   
     2    2    3 ar   
     3    3    4 ar   
     4    4    5 ar   
     5    6    5 ar   
     6    1    6 ar   
     7    6    7 1    
     8    7    8 am   
     9    9    8 am   
    10    5    9 1    
    11    7   10 2    
    12    9   11 2    
    13    8   12 1    
    14   12   13 1    
    15   13   14 1    
    16   15   14 1    
    17   16   15 2    
    18   12   16 1    
    19   15   17 1    
    20   14   18 2    
    21    1   19 1    
    22   19   20 1    
    23   20   21 1    
    24   20   22 2    
    25    2   23 1    
    26    3   24 1    
    27    4   25 1    
    28   12   26 1    
    29   16   27 1    
    30   17   28 1    
    31   17   29 1    
    32   17   30 1    
    33   19   31 1    
    34   21   32 1    
    35   21   33 1    
    36   21   34 1    
@<TRIPOS>SUBSTRUCTURE
     1 ****        2 TEMP              0 ****  ****    0 ROOT 
@<TRIPOS>NORMAL
@<TRIPOS>FF_PBC
FORCE_FIELD_SETUP_FEATURE Force Field Setup information
v1.0  0 0.000000 0.000000 0.000000 0.000000 0.000000 0.000000 NONE 0 0 0 0 1 0 0 0 0 0 0 0 0
