#	Name:			PISM00976
#	Creating user name:	baoopengkun
#	Creation time:		Thu Dec 13 11:39:26 2018

#	Modifying user name:	baoopengkun
#	Modification time:	Thu Dec 13 11:40:50 2018

@<TRIPOS>MOLECULE
PISM00976
   24    25     1     1     0
SMALL
GAST_HUCK


@<TRIPOS>ATOM
      1 C1         -2.5989   17.7773   -3.1721 C.ar      1 <1>        -0.0575 
      2 C2         -2.5478   18.8638   -4.0498 C.ar      1 <1>        -0.0640 
      3 C3         -3.5190   19.0061   -5.0418 C.ar      1 <1>        -0.0634 
      4 C4         -4.5167   18.0379   -5.1699 C.ar      1 <1>        -0.0562 
      5 C5         -4.5671   16.9518   -4.2871 C.ar      1 <1>        -0.0185 
      6 C6         -3.6543   16.8543   -3.2250 C.ar      1 <1>        -0.0118 
      7 C7         -3.8151   15.8421   -2.2626 C.ar      1 <1>         0.0611 
      8 C8         -4.7482   14.8213   -2.4902 C.ar      1 <1>         0.1140 
      9 C9         -5.5965   14.8748   -3.5967 C.ar      1 <1>        -0.0185 
     10 C10        -5.5330   15.9572   -4.4746 C.ar      1 <1>        -0.0499 
     11 C11        -3.0199   15.8279   -0.9715 C.2       1 <1>         0.1150 
     12 O12        -2.8471   14.8048   -0.3299 O.2       1 <1>        -0.3746 
     13 O13        -4.8525   13.7400   -1.6153 O.3       1 <1>        -0.3129 
     14 C14        -5.7878   13.9368   -0.5431 C.3       1 <1>         0.0624 
     15 H1         -1.7884   17.6716   -2.4616 H         1 <1>         0.0591 
     16 H2         -1.7515   19.5973   -3.9637 H         1 <1>         0.0619 
     17 H3         -3.4955   19.8608   -5.7112 H         1 <1>         0.0590 
     18 H4         -5.2500   18.1405   -5.9641 H         1 <1>         0.0627 
     19 H5         -6.3071   14.0725   -3.7667 H         1 <1>         0.0607 
     20 H6         -6.2361   16.0119   -5.3004 H         1 <1>         0.0674 
     21 H7         -2.5785   16.7263   -0.5456 H         1 <1>         0.1290 
     22 H8         -6.8059   14.0844   -0.9355 H         1 <1>         0.0584 
     23 H9         -5.5078   14.8027    0.0767 H         1 <1>         0.0584 
     24 H10        -5.7787   13.0361    0.0879 H         1 <1>         0.0584 
@<TRIPOS>BOND
     1    2    1 ar   
     2    2    3 ar   
     3    3    4 ar   
     4    4    5 ar   
     5    5    6 ar   
     6    1    6 ar   
     7    6    7 ar   
     8    7    8 ar   
     9    8    9 ar   
    10    9   10 ar   
    11    5   10 ar   
    12    7   11 1    
    13   11   12 2    
    14    8   13 1    
    15   13   14 1    
    16    1   15 1    
    17    2   16 1    
    18    3   17 1    
    19    4   18 1    
    20    9   19 1    
    21   10   20 1    
    22   11   21 1    
    23   14   22 1    
    24   14   23 1    
    25   14   24 1    
@<TRIPOS>SUBSTRUCTURE
     1 ****        2 TEMP              0 ****  ****    0 ROOT 
@<TRIPOS>NORMAL
@<TRIPOS>FF_PBC
FORCE_FIELD_SETUP_FEATURE Force Field Setup information
v1.0  0 0.000000 0.000000 0.000000 0.000000 0.000000 0.000000 NONE 0 0 0 0 1 0 0 0 0 0 0 0 0
