#	Name:			PISM00832.1
#	Creating user name:	baoopengkun
#	Creation time:		Fri Nov 30 18:22:26 2018

#	Modifying user name:	baoopengkun
#	Modification time:	Fri Nov 30 18:25:42 2018

@<TRIPOS>MOLECULE
PISM00832.1
   33    34     1     2     0
SMALL
GAST_HUCK


@<TRIPOS>ATOM
      1 C1        -23.3751   -2.0935    9.2441 C.ar      1 <1>        -0.0630 
      2 C2        -23.1787   -3.3642    8.6971 C.ar      1 <1>        -0.0634 
      3 C3        -22.4344   -3.5077    7.5232 C.ar      1 <1>        -0.0630 
      4 C4        -21.8586   -2.3869    6.9179 C.ar      1 <1>        -0.0547 
      5 C5        -22.0161   -1.1176    7.4849 C.ar      1 <1>         0.0057 
      6 C6        -22.8174   -0.9720    8.6235 C.ar      1 <1>        -0.0547 
      7 C7        -21.3096    0.0740    6.8658 C.2       1 <1>         0.1724 
      8 N8        -20.5950    0.8871    7.5465 N.2       1 <1>        -0.1061 
      9 C9        -21.4312    0.3147    5.4152 C.2       1 <1>         0.2768 
     10 O10       -22.1747   -0.3914    4.7506 O.2       1 <1>        -0.3591 
     11 O11       -20.7273    1.3079    4.8477 O.3       1 <1>        -0.2809 
     12 C12       -20.9344    1.4388    3.4270 C.3       1 <1>         0.0645 
     13 O13       -20.5615    0.4558    8.8856 O.3       1 <1>        -0.1680 
     14 C14       -19.4089   -0.3334    9.2014 C.3       1 <1>         0.2638 
     15 C15       -19.6974   -0.9924   10.5277 C.2       1 <1>         0.0024 
     16 C16       -19.7944   -2.3125   10.3788 C.2       1 <1>         0.0295 
     17 C17       -19.5179   -2.5199    8.9631 C.2       1 <1>         0.2498 
     18 O18       -19.2624   -1.4214    8.2649 O.3       1 <1>        -0.2273 
     19 C19       -20.1016   -3.3605   11.4125 C.3       1 <1>        -0.0323 
     20 O20       -19.5074   -3.6268    8.4530 O.2       1 <1>        -0.3691 
     21 H1        -23.9625   -1.9776   10.1498 H         1 <1>         0.0613 
     22 H2        -23.6045   -4.2377    9.1813 H         1 <1>         0.0603 
     23 H3        -22.2986   -4.4909    7.0832 H         1 <1>         0.0613 
     24 H4        -21.2762   -2.5102    6.0104 H         1 <1>         0.0608 
     25 H5        -23.0131    0.0151    9.0302 H         1 <1>         0.0608 
     26 H6        -20.3136    2.2739    3.0707 H         1 <1>         0.0575 
     27 H7        -21.9876    1.6653    3.1951 H         1 <1>         0.0575 
     28 H8        -20.6281    0.5254    2.8919 H         1 <1>         0.0575 
     29 H9        -18.4998    0.2881    9.2141 H         1 <1>         0.1248 
     30 H10       -19.8255   -0.4553   11.4666 H         1 <1>         0.0708 
     31 H11       -20.0421   -2.9432   12.4290 H         1 <1>         0.0347 
     32 H12       -19.3829   -4.1886   11.3224 H         1 <1>         0.0347 
     33 H13       -21.1173   -3.7472   11.2405 H         1 <1>         0.0347 
@<TRIPOS>BOND
     1    2    1 ar   
     2    2    3 ar   
     3    3    4 ar   
     4    4    5 ar   
     5    5    6 ar   
     6    1    6 ar   
     7    5    7 1    
     8    7    8 2    
     9    7    9 1    
    10    9   10 2    
    11    9   11 1    
    12   11   12 1    
    13    8   13 1    
    14   13   14 1    
    15   14   15 1    
    16   15   16 2    
    17   16   17 1    
    18   17   18 1    
    19   14   18 1    
    20   16   19 1    
    21   17   20 2    
    22    1   21 1    
    23    2   22 1    
    24    3   23 1    
    25    4   24 1    
    26    6   25 1    
    27   12   26 1    
    28   12   27 1    
    29   12   28 1    
    30   14   29 1    
    31   15   30 1    
    32   19   31 1    
    33   19   32 1    
    34   19   33 1    
@<TRIPOS>SUBSTRUCTURE
     1 ****        2 TEMP              0 ****  ****    0 ROOT 
@<TRIPOS>NORMAL
@<TRIPOS>FF_PBC
FORCE_FIELD_SETUP_FEATURE Force Field Setup information
v1.0  0 0.000000 0.000000 0.000000 0.000000 0.000000 0.000000 NONE 0 0 0 0 1 0 0 0 0 0 0 0 0
@<TRIPOS>RENDERING_ATTRS
ANTIALIASED_LINES 
*
