#	Name:			PISM00527
#	Creating user name:	baoopengkun
#	Creation time:		Sun Dec 16 00:47:12 2018

#	Modifying user name:	baoopengkun
#	Modification time:	Sun Dec 16 00:50:33 2018

@<TRIPOS>MOLECULE
PISM00527
   64    68     1     1     0
SMALL
GAST_HUCK


@<TRIPOS>ATOM
      1 C1          5.4252   12.9354   23.2614 C.3       1 <1>         0.0366 
      2 O2          6.7676   12.4490   23.4533 O.3       1 <1>        -0.3806 
      3 C3          7.3715   11.9518   22.2415 C.3       1 <1>         0.0640 
      4 C4          8.7953   11.4507   22.5885 C.3       1 <1>         0.0608 
      5 C5          9.5218   10.8929   21.3868 C.2       1 <1>         0.1809 
      6 O6          8.9247   10.9620   20.3250 O.2       1 <1>        -0.3968 
      7 N7         10.7643   10.3343   21.4550 N.am      1 <1>        -0.2699 
      8 C8         11.4977   10.1954   22.7135 C.3       1 <1>         0.0394 
      9 C9         11.6696    8.6746   22.9931 C.3       1 <1>         0.0076 
     10 C10        10.3100    7.9866   23.2700 C.3       1 <1>         0.0612 
     11 N11         9.4501    7.7621   22.0973 N.pl3     1 <1>        -0.2171 
     12 C12         8.1904    7.4726   22.3240 C.2       1 <1>         0.2270 
     13 O13         7.7473    7.3973   23.4607 O.2       1 <1>        -0.4054 
     14 C14         7.2034    7.2081   21.2491 C.2       1 <1>         0.1124 
     15 C15         7.6834    7.2735   20.0007 C.2       1 <1>        -0.0648 
     16 N16         5.9787    6.9417   21.6485 N.pl3     1 <1>        -0.2466 
     17 C17        11.3360    9.7292   20.2529 C.3       1 <1>         0.0516 
     18 C18        11.3532    8.2126   20.5722 C.3       1 <1>         0.0439 
     19 C19        12.2881    7.9521   21.7763 C.3       1 <1>        -0.0261 
     20 C20         9.9106    7.8375   20.8659 C.2       1 <1>         0.0632 
     21 C21         9.1035    7.6051   19.8206 C.2       1 <1>        -0.0619 
     22 C22         4.9544    6.6648   20.8799 C.2       1 <1>         0.2248 
     23 O23         5.0044    6.5850   19.6653 O.2       1 <1>        -0.3693 
     24 C24         3.5852    6.4036   21.4787 C.ar      1 <1>         0.0542 
     25 C25         3.1244    7.0972   22.6050 C.ar      1 <1>        -0.0413 
     26 C26         1.8791    6.7935   23.1635 C.ar      1 <1>        -0.0488 
     27 C27         1.0640    5.8196   22.5796 C.ar      1 <1>        -0.0140 
     28 C28         1.5014    5.1530   21.4317 C.ar      1 <1>        -0.0488 
     29 C29         2.7533    5.4478   20.8840 C.ar      1 <1>        -0.0413 
     30 C30        -0.2575    5.4966   23.1726 C.ar      1 <1>        -0.0153 
     31 C31        -0.3486    5.1009   24.5109 C.ar      1 <1>        -0.0530 
     32 C32        -1.5934    4.7962   25.0694 C.ar      1 <1>        -0.0605 
     33 C33        -2.7496    4.8800   24.2881 C.ar      1 <1>        -0.0611 
     34 C34        -2.6607    5.2749   22.9501 C.ar      1 <1>        -0.0605 
     35 C35        -1.4162    5.5865   22.3946 C.ar      1 <1>        -0.0530 
     36 H1          5.0520   13.2888   24.2340 H         1 <1>         0.0524 
     37 H2          4.7578   12.1366   22.9021 H         1 <1>         0.0524 
     38 H3          5.4027   13.7780   22.5527 H         1 <1>         0.0524 
     39 H4          7.4377   12.7514   21.4847 H         1 <1>         0.0585 
     40 H5          6.7833   11.1145   21.8284 H         1 <1>         0.0585 
     41 H6          8.6809   10.6690   23.3534 H         1 <1>         0.0525 
     42 H7          9.3637   12.2962   23.0048 H         1 <1>         0.0525 
     43 H8         11.0476   10.6881   23.5862 H         1 <1>         0.0526 
     44 H9         12.4946   10.6460   22.5807 H         1 <1>         0.0526 
     45 H10        12.3260    8.5513   23.8736 H         1 <1>         0.0347 
     46 H11         9.7944    8.5687   24.0510 H         1 <1>         0.0590 
     47 H12        10.5046    6.9857   23.6908 H         1 <1>         0.0590 
     48 H13         7.1285    7.1107   19.0811 H         1 <1>         0.0432 
     49 H14         5.8266    6.9409   22.6696 H         1 <1>         0.2053 
     50 H15        12.3571   10.1074   20.0861 H         1 <1>         0.0555 
     51 H16        10.7681    9.9187   19.3275 H         1 <1>         0.0555 
     52 H17        11.7438    7.6600   19.7001 H         1 <1>         0.0556 
     53 H18        13.3027    8.3328   21.5743 H         1 <1>         0.0302 
     54 H19        12.3628    6.8685   21.9665 H         1 <1>         0.0302 
     55 H20         9.4777    7.6653   18.7976 H         1 <1>         0.0242 
     56 H21         3.7198    7.8864   23.0515 H         1 <1>         0.0668 
     57 H22         1.5423    7.3204   24.0510 H         1 <1>         0.0633 
     58 H23         0.8708    4.4024   20.9654 H         1 <1>         0.0633 
     59 H24         3.0808    4.9241   19.9911 H         1 <1>         0.0668 
     60 H25         0.5480    5.0271   25.1182 H         1 <1>         0.0629 
     61 H26        -1.6623    4.4937   26.1099 H         1 <1>         0.0619 
     62 H27        -3.7161    4.6387   24.7202 H         1 <1>         0.0622 
     63 H28        -3.5582    5.3404   22.3425 H         1 <1>         0.0619 
     64 H29        -1.3516    5.9005   21.3575 H         1 <1>         0.0629 
@<TRIPOS>BOND
     1    2    1 1    
     2    2    3 1    
     3    3    4 1    
     4    4    5 1    
     5    5    6 2    
     6    5    7 am   
     7    7    8 1    
     8    8    9 1    
     9    9   10 1    
    10   10   11 1    
    11   11   12 1    
    12   12   13 2    
    13   12   14 1    
    14   14   15 2    
    15   14   16 1    
    16    7   17 1    
    17   17   18 1    
    18   18   19 1    
    19    9   19 1    
    20   18   20 1    
    21   11   20 1    
    22   20   21 2    
    23   15   21 1    
    24   16   22 1    
    25   22   23 2    
    26   22   24 1    
    27   24   25 ar   
    28   25   26 ar   
    29   26   27 ar   
    30   27   28 ar   
    31   28   29 ar   
    32   24   29 ar   
    33   27   30 1    
    34   30   31 ar   
    35   31   32 ar   
    36   32   33 ar   
    37   33   34 ar   
    38   34   35 ar   
    39   30   35 ar   
    40    1   36 1    
    41    1   37 1    
    42    1   38 1    
    43    3   39 1    
    44    3   40 1    
    45    4   41 1    
    46    4   42 1    
    47    8   43 1    
    48    8   44 1    
    49    9   45 1    
    50   10   46 1    
    51   10   47 1    
    52   15   48 1    
    53   16   49 1    
    54   17   50 1    
    55   17   51 1    
    56   18   52 1    
    57   19   53 1    
    58   19   54 1    
    59   21   55 1    
    60   25   56 1    
    61   26   57 1    
    62   28   58 1    
    63   29   59 1    
    64   31   60 1    
    65   32   61 1    
    66   33   62 1    
    67   34   63 1    
    68   35   64 1    
@<TRIPOS>SUBSTRUCTURE
     1 ****        2 TEMP              0 ****  ****    0 ROOT 
@<TRIPOS>NORMAL
@<TRIPOS>FF_PBC
FORCE_FIELD_SETUP_FEATURE Force Field Setup information
v1.0  0 0.000000 0.000000 0.000000 0.000000 0.000000 0.000000 NONE 0 0 0 0 1 0 0 0 0 0 0 0 0
