#	Name:			PISM00966.1
#	Creating user name:	baoopengkun
#	Creation time:		Thu Dec 13 10:35:31 2018

#	Modifying user name:	baoopengkun
#	Modification time:	Thu Dec 13 11:08:37 2018

@<TRIPOS>MOLECULE
PISM00966.1
   41    43     1     1     0
SMALL
GAST_HUCK


@<TRIPOS>ATOM
      1 C1         -8.3836   12.9827   -7.5425 C.ar      1 <1>         0.0034 
      2 C2         -7.4693   12.3166   -6.7251 C.ar      1 <1>         0.1668 
      3 C3         -7.6104   10.9451   -6.5073 C.ar      1 <1>         0.0034 
      4 C4         -8.6717   10.2461   -7.0910 C.ar      1 <1>        -0.0383 
      5 C5         -9.6249   10.9124   -7.8738 C.ar      1 <1>        -0.0248 
      6 C6         -9.4436   12.2800   -8.1230 C.ar      1 <1>        -0.0383 
      7 C7        -10.8528   10.1844   -8.4734 C.3       1 <1>         0.0828 
      8 O8        -11.8843   11.1571   -8.7194 O.3       1 <1>        -0.4237 
      9 C9        -10.4224    9.6216   -9.8563 C.3       1 <1>        -0.0377 
     10 C10       -11.4016    9.0680   -7.5290 C.3       1 <1>         0.0802 
     11 N11       -12.7642    8.6426   -7.8306 N.pl3     1 <1>        -0.1843 
     12 N12       -13.8048    9.4360   -8.2116 N.2       1 <1>        -0.1909 
     13 C13       -14.8864    8.7863   -8.4317 C.2       1 <1>         0.0618 
     14 N14       -14.4536    7.4456   -8.1519 N.2       1 <1>        -0.2870 
     15 C15       -13.2440    7.4352   -7.8193 C.2       1 <1>         0.1268 
     16 C16       -11.5769    8.9396  -10.6358 C.3       1 <1>        -0.0243 
     17 C17       -11.0956    8.6011  -12.0541 C.ar      1 <1>        -0.0434 
     18 C18       -11.2603    9.5242  -13.0932 C.ar      1 <1>        -0.0597 
     19 C19       -10.8238    9.2178  -14.3855 C.ar      1 <1>        -0.0546 
     20 C20       -10.2168    7.9866  -14.6453 C.ar      1 <1>         0.0330 
     21 C21       -10.0485    7.0624  -13.6111 C.ar      1 <1>        -0.0546 
     22 C22       -10.4848    7.3700  -12.3191 C.ar      1 <1>        -0.0597 
     23 Cl23       -9.6674    7.6027  -16.2640 Cl        1 <1>        -0.0771 
     24 F24        -6.4675   12.9842   -6.1586 F         1 <1>        -0.1556 
     25 H1         -8.2649   14.0461   -7.7237 H         1 <1>         0.0693 
     26 H2         -6.8894   10.4270   -5.8831 H         1 <1>         0.0693 
     27 H3         -8.7321    9.1775   -6.9255 H         1 <1>         0.0841 
     28 H4        -10.1251   12.8146   -8.7774 H         1 <1>         0.0841 
     29 H5        -12.2599   11.5085   -7.9189 H         1 <1>         0.1951 
     30 H6         -9.5947    8.9052   -9.7296 H         1 <1>         0.0212 
     31 H7        -10.0522   10.4647  -10.4627 H         1 <1>         0.0212 
     32 H8        -11.4341    9.4593   -6.5008 H         1 <1>         0.0564 
     33 H9        -10.7422    8.1878   -7.5504 H         1 <1>         0.0564 
     34 H10       -15.8631    9.1521   -8.7445 H         1 <1>         0.0863 
     35 H11       -12.6976    6.5280   -7.5644 H         1 <1>         0.1361 
     36 H12       -12.4509    9.6079  -10.6885 H         1 <1>         0.0419 
     37 H13       -11.8934    8.0133  -10.1352 H         1 <1>         0.0419 
     38 H14       -11.7266   10.4851  -12.8999 H         1 <1>         0.0557 
     39 H15       -10.9550    9.9353  -15.1890 H         1 <1>         0.0606 
     40 H16        -9.5780    6.1058  -13.8137 H         1 <1>         0.0606 
     41 H17       -10.3449    6.6475  -11.5213 H         1 <1>         0.0557 
@<TRIPOS>BOND
     1    2    1 ar   
     2    2    3 ar   
     3    3    4 ar   
     4    4    5 ar   
     5    5    6 ar   
     6    1    6 ar   
     7    5    7 1    
     8    7    8 1    
     9    7    9 1    
    10    7   10 1    
    11   10   11 1    
    12   11   12 1    
    13   12   13 2    
    14   13   14 1    
    15   14   15 2    
    16   11   15 1    
    17    9   16 1    
    18   16   17 1    
    19   17   18 ar   
    20   18   19 ar   
    21   19   20 ar   
    22   20   21 ar   
    23   21   22 ar   
    24   17   22 ar   
    25   20   23 1    
    26    2   24 1    
    27    1   25 1    
    28    3   26 1    
    29    4   27 1    
    30    6   28 1    
    31    8   29 1    
    32    9   30 1    
    33    9   31 1    
    34   10   32 1    
    35   10   33 1    
    36   13   34 1    
    37   15   35 1    
    38   16   36 1    
    39   16   37 1    
    40   18   38 1    
    41   19   39 1    
    42   21   40 1    
    43   22   41 1    
@<TRIPOS>SUBSTRUCTURE
     1 ****        2 TEMP              0 ****  ****    0 ROOT 
@<TRIPOS>NORMAL
@<TRIPOS>FF_PBC
FORCE_FIELD_SETUP_FEATURE Force Field Setup information
v1.0  0 0.000000 0.000000 0.000000 0.000000 0.000000 0.000000 NONE 0 0 0 0 1 0 0 0 0 0 0 0 0
