#	Name:			PISM00686
#	Creating user name:	baoopengkun
#	Creation time:		Sat Dec 08 17:24:43 2018

#	Modifying user name:	baoopengkun
#	Modification time:	Sat Dec 08 17:24:59 2018

@<TRIPOS>MOLECULE
PISM00686
   36    38     3     2     0
SMALL
GAST_HUCK


@<TRIPOS>ATOM
      1 C1         20.4558   32.0700   -5.4262 C.3       1 PHENYL      0.0657 
      2 C          19.2528   31.7612   -6.3419 C.ar      1 PHENYL     -0.0577 
      3 C          18.7379   30.4608   -6.4126 C.ar      1 PHENYL     -0.0543 
      4 C          17.7070   30.1494   -7.3039 C.ar      1 PHENYL     -0.0435 
      5 C          17.1532   31.1487   -8.1081 C.ar      1 PHENYL     -0.0438 
      6 C          17.6168   32.4622   -7.9974 C.ar      1 PHENYL     -0.0435 
      7 C          18.6451   32.7689   -7.1014 C.ar      1 PHENYL     -0.0543 
      8 C          21.4976   30.9383   -5.3383 C.ar      2 PHENYL     -0.0577 
      9 C          22.2011   30.7372   -4.1447 C.ar      2 PHENYL     -0.0543 
     10 C          23.1282   29.6973   -4.0291 C.ar      2 PHENYL     -0.0435 
     11 C          23.3739   28.8560   -5.1172 C.ar      2 PHENYL     -0.0438 
     12 C          22.6957   29.0650   -6.3208 C.ar      2 PHENYL     -0.0435 
     13 C          21.7686   30.1054   -6.4316 C.ar      2 PHENYL     -0.0543 
     14 C          21.2705   33.2921   -5.8867 C.ar      3 PHENYL     -0.0576 
     15 C          21.6393   34.2931   -4.9794 C.ar      3 PHENYL     -0.0539 
     16 C          22.3747   35.4030   -5.4050 C.ar      3 PHENYL     -0.0292 
     17 C          22.7563   35.5187   -6.7436 C.ar      3 PHENYL      0.0607 
     18 C          22.3999   34.5214   -7.6541 C.ar      3 PHENYL     -0.0292 
     19 C          21.6608   33.4150   -7.2260 C.ar      3 PHENYL     -0.0539 
     20 O20        19.8787   32.3268   -4.1336 O.3       1 PHENYL     -0.4529 
     21 Cl21       23.6783   36.9090   -7.2785 Cl        3 PHENYL     -0.0519 
     22 H1         19.1352   29.6816   -5.7700 H         1 PHENYL      0.0760 
     23 H2         17.3359   29.1311   -7.3705 H         1 PHENYL      0.0669 
     24 H3         16.3642   30.9063   -8.8135 H         1 PHENYL      0.0771 
     25 H4         17.1763   33.2457   -8.6067 H         1 PHENYL      0.0669 
     26 H5         18.9620   33.8012   -6.9976 H         1 PHENYL      0.0760 
     27 H6         22.0328   31.3937   -3.2971 H         2 PHENYL      0.0760 
     28 H7         23.6581   29.5440   -3.0939 H         2 PHENYL      0.0669 
     29 H8         24.0894   28.0442   -5.0281 H         2 PHENYL      0.0771 
     30 H9         22.8897   28.4182   -7.1712 H         2 PHENYL      0.0669 
     31 H10        21.2629   30.2571   -7.3786 H         2 PHENYL      0.0760 
     32 H11        21.3596   34.2166   -3.9339 H         3 PHENYL      0.0759 
     33 H12        22.6513   36.1770   -4.6964 H         3 PHENYL      0.0675 
     34 H13        22.6977   34.6084   -8.6940 H         3 PHENYL      0.0675 
     35 H14        21.3898   32.6508   -7.9458 H         3 PHENYL      0.0759 
     36 H15        19.4047   31.5764   -3.7906 H         1 PHENYL      0.1841 
@<TRIPOS>BOND
     1    2    3 ar   
     2    2    7 ar   
     3    7    6 ar   
     4    6    5 ar   
     5    5    4 ar   
     6    4    3 ar   
     7    2    1 1    
     8    8    9 ar   
     9    8   13 ar   
    10   13   12 ar   
    11   12   11 ar   
    12   11   10 ar   
    13   10    9 ar   
    14    1    8 1    
    15   14   15 ar   
    16   14   19 ar   
    17   19   18 ar   
    18   18   17 ar   
    19   17   16 ar   
    20   16   15 ar   
    21    1   14 1    
    22    1   20 1    
    23   17   21 1    
    24    3   22 1    
    25    4   23 1    
    26    5   24 1    
    27    6   25 1    
    28    7   26 1    
    29    9   27 1    
    30   10   28 1    
    31   11   29 1    
    32   12   30 1    
    33   13   31 1    
    34   15   32 1    
    35   16   33 1    
    36   18   34 1    
    37   19   35 1    
    38   20   36 1    
@<TRIPOS>SUBSTRUCTURE
     1 PHENYL      2 PERM              0 ****  ****    2 ROOT 
     2 PHENYL      8 PERM              0 ****  ****    1  
     3 PHENYL     14 PERM              0 ****  ****    1  
@<TRIPOS>NORMAL
@<TRIPOS>FF_PBC
FORCE_FIELD_SETUP_FEATURE Force Field Setup information
v1.0  0 0.000000 0.000000 0.000000 0.000000 0.000000 0.000000 NONE 0 0 0 0 1 0 0 0 0 0 0 0 0
@<TRIPOS>RENDERING_ATTRS
ANTIALIASED_LINES 
*
