#	Name:			PISM01060
#	Creating user name:	malab
#	Creation time:		Tue Jul 02 23:26:26 2019

#	Modifying user name:	malab
#	Modification time:	Tue Jul 02 23:28:08 2019

@<TRIPOS>MOLECULE
PISM01060
   45    48     1     1     0
SMALL
GAST_HUCK


@<TRIPOS>ATOM
      1 C1        -10.5770   12.1770   17.1356 C.3       1 <1>        -0.0346 
      2 C2        -11.5089   11.7790   16.0086 C.2       1 <1>        -0.0758 
      3 C3        -11.0361   11.3417   14.8331 C.2       1 <1>        -0.0983 
      4 C4        -11.7808   10.8992   13.6347 C.2       1 <1>        -0.0549 
      5 C5        -13.0589   11.0908   13.2923 C.2       1 <1>        -0.0492 
      6 C6        -14.1498   11.8425   14.0134 C.3       1 <1>        -0.0273 
      7 C7        -13.7040   12.7264   15.2030 C.3       1 <1>        -0.0352 
      8 C8        -12.9854   11.9012   16.2990 C.3       1 <1>        -0.0213 
      9 C9        -11.0523   10.0943   12.5890 C.3       1 <1>         0.1089 
     10 C10       -12.0424   10.1172   11.3859 C.3       1 <1>         0.0552 
     11 C11       -13.4310   10.4310   11.9952 C.3       1 <1>         0.0881 
     12 O12        -9.8280   10.7672   12.2249 O.3       1 <1>        -0.2725 
     13 C13       -10.1365   11.5084   11.1748 C.2       1 <1>         0.2371 
     14 O14        -9.3715   12.3380   10.7134 O.2       1 <1>        -0.3778 
     15 C15       -11.4397   11.2377   10.5892 C.2       1 <1>         0.0583 
     16 C16       -11.9877   11.8536    9.5372 C.2       1 <1>         0.0790 
     17 O17       -13.1880   11.4574    9.0928 O.3       1 <1>        -0.2722 
     18 C18       -13.6734   12.2353    7.9869 C.3       1 <1>         0.2383 
     19 C19       -15.0768   11.7695    7.6882 C.2       1 <1>        -0.0010 
     20 C20       -15.9539   12.7414    7.9309 C.2       1 <1>         0.0293 
     21 C21       -17.4497   12.7062    7.7750 C.3       1 <1>        -0.0323 
     22 C22       -15.1178   13.8529    8.3702 C.2       1 <1>         0.2495 
     23 O23       -13.8126   13.6131    8.3895 O.3       1 <1>        -0.2305 
     24 O24       -15.5788   14.9340    8.6931 O.2       1 <1>        -0.3691 
     25 O25       -14.1463    9.2283   12.3226 O.3       1 <1>        -0.3802 
     26 H1        -10.8010   11.5697   18.0255 H         1 <1>         0.0407 
     27 H2        -10.7321   13.2385   17.3808 H         1 <1>         0.0407 
     28 H3         -9.5130   12.0386   16.8910 H         1 <1>         0.0407 
     29 H4         -9.9537   11.2812   14.7223 H         1 <1>         0.0222 
     30 H5        -14.8878   11.1006   14.3586 H         1 <1>         0.0401 
     31 H6        -14.6523   12.5025   13.2872 H         1 <1>         0.0401 
     32 H7        -14.6143   13.1834   15.6300 H         1 <1>         0.0311 
     33 H8        -13.0502   13.5432   14.8540 H         1 <1>         0.0311 
     34 H9        -13.4268   10.8979   16.4055 H         1 <1>         0.0443 
     35 H10       -13.1236   12.4243   17.2600 H         1 <1>         0.0443 
     36 H11       -10.8684    9.0840   12.9877 H         1 <1>         0.0748 
     37 H12       -12.0199    9.1940   10.7861 H         1 <1>         0.0477 
     38 H13       -14.0384   11.0935   11.3570 H         1 <1>         0.0748 
     39 H14       -11.4142   12.6646    9.0802 H         1 <1>         0.1070 
     40 H15       -13.0337   12.1471    7.0922 H         1 <1>         0.1210 
     41 H16       -15.3321   10.7724    7.3318 H         1 <1>         0.0706 
     42 H17       -17.7204   12.2126    6.8296 H         1 <1>         0.0347 
     43 H18       -17.8560   13.7288    7.7714 H         1 <1>         0.0347 
     44 H19       -17.8922   12.1482    8.6133 H         1 <1>         0.0347 
     45 H20       -14.3970    8.7253   11.5543 H         1 <1>         0.2130 
@<TRIPOS>BOND
     1    2    1 1    
     2    2    3 2    
     3    3    4 1    
     4    4    5 2    
     5    5    6 1    
     6    6    7 1    
     7    7    8 1    
     8    2    8 1    
     9    4    9 1    
    10    9   10 1    
    11   10   11 1    
    12    5   11 1    
    13    9   12 1    
    14   12   13 1    
    15   13   14 2    
    16   13   15 1    
    17   10   15 1    
    18   15   16 2    
    19   16   17 1    
    20   17   18 1    
    21   18   19 1    
    22   19   20 2    
    23   20   21 1    
    24   20   22 1    
    25   22   23 1    
    26   18   23 1    
    27   22   24 2    
    28   11   25 1    
    29    1   26 1    
    30    1   27 1    
    31    1   28 1    
    32    3   29 1    
    33    6   30 1    
    34    6   31 1    
    35    7   32 1    
    36    7   33 1    
    37    8   34 1    
    38    8   35 1    
    39    9   36 1    
    40   10   37 1    
    41   11   38 1    
    42   16   39 1    
    43   18   40 1    
    44   19   41 1    
    45   21   42 1    
    46   21   43 1    
    47   21   44 1    
    48   25   45 1    
@<TRIPOS>SUBSTRUCTURE
     1 ****        2 TEMP              0 ****  ****    0 ROOT 
@<TRIPOS>NORMAL
@<TRIPOS>FF_PBC
FORCE_FIELD_SETUP_FEATURE Force Field Setup information
v1.0  0 0.000000 0.000000 0.000000 0.000000 0.000000 0.000000 NONE 0 0 0 0 1 0 0 0 0 0 0 0 0
