#	Name:			PISM01155
#	Creating user name:	baoopengkun
#	Creation time:		Tue Dec 18 15:53:32 2018

#	Modifying user name:	baoopengkun
#	Modification time:	Tue Dec 18 15:55:00 2018

@<TRIPOS>MOLECULE
PISM01155
   26    27     1     1     0
SMALL
GAST_HUCK


@<TRIPOS>ATOM
      1 O1          3.1710    5.3272    4.9872 O.2       1 <1>        -0.3688 
      2 C2          3.7325    5.6080    3.9402 C.2       1 <1>         0.2496 
      3 O3          4.4502    4.7127    3.2609 O.3       1 <1>        -0.2915 
      4 C4          3.6593    6.9842    3.3278 C.3       1 <1>         0.1210 
      5 C5          5.0677    7.5573    3.0691 C.3       1 <1>         0.0311 
      6 S6          4.7373    9.3102    2.7344 S.3       1 <1>        -0.1260 
      7 C7          3.1399    9.3268    3.6136 C.3       1 <1>         0.0896 
      8 N8          3.0285    7.9825    4.2153 N.3       1 <1>        -0.2736 
      9 C9          2.0564    9.7293    2.5968 C.ar      1 <1>         0.0159 
     10 C10         2.2089   10.9355    1.9023 C.ar      1 <1>        -0.0570 
     11 C11         1.2793   11.3257    0.9353 C.ar      1 <1>        -0.0054 
     12 C12         0.1777   10.5115    0.6650 C.ar      1 <1>        -0.0680 
     13 C13         0.0038    9.3198    1.3734 C.ar      1 <1>        -0.0368 
     14 C14         0.9303    8.9320    2.3508 C.ar      1 <1>         0.0948 
     15 O15         0.7410    7.7576    3.0882 O.3       1 <1>        -0.3347 
     16 Br16        1.5068   12.9171    0.0144 Br        1 <1>        -0.0618 
     17 H1          4.4510    3.8714    3.7045 H         1 <1>         0.2540 
     18 H2          3.1096    6.9045    2.3749 H         1 <1>         0.0729 
     19 H3          5.5850    7.0705    2.2277 H         1 <1>         0.0420 
     20 H4          5.6831    7.4861    3.9793 H         1 <1>         0.0420 
     21 H5          3.1737   10.0776    4.4183 H         1 <1>         0.0718 
     22 H6          1.9990    7.7234    4.4311 H         1 <1>         0.1283 
     23 H7          3.0558   11.5806    2.1121 H         1 <1>         0.0552 
     24 H8         -0.5418   10.8052   -0.0929 H         1 <1>         0.0558 
     25 H9         -0.8600    8.7001    1.1555 H         1 <1>         0.0529 
     26 H10        -0.0564    7.2825    2.8789 H         1 <1>         0.2467 
@<TRIPOS>BOND
     1    2    1 2    
     2    2    3 1    
     3    2    4 1    
     4    4    5 1    
     5    5    6 1    
     6    6    7 1    
     7    7    8 1    
     8    4    8 1    
     9    7    9 1    
    10    9   10 ar   
    11   10   11 ar   
    12   11   12 ar   
    13   12   13 ar   
    14   13   14 ar   
    15    9   14 ar   
    16   14   15 1    
    17   11   16 1    
    18    3   17 1    
    19    4   18 1    
    20    5   19 1    
    21    5   20 1    
    22    7   21 1    
    23    8   22 1    
    24   10   23 1    
    25   12   24 1    
    26   13   25 1    
    27   15   26 1    
@<TRIPOS>SUBSTRUCTURE
     1 ****        2 TEMP              0 ****  ****    0 ROOT 
@<TRIPOS>NORMAL
@<TRIPOS>FF_PBC
FORCE_FIELD_SETUP_FEATURE Force Field Setup information
v1.0  0 0.000000 0.000000 0.000000 0.000000 0.000000 0.000000 NONE 0 0 0 0 1 0 0 0 0 0 0 0 0
