#	Name:			PISM00314
#	Creating user name:	baoopengkun
#	Creation time:		Sun Dec 16 04:14:33 2018

#	Modifying user name:	baoopengkun
#	Modification time:	Sun Dec 16 04:18:22 2018

@<TRIPOS>MOLECULE
PISM00314
   44    46     1     1     0
SMALL
GAST_HUCK


@<TRIPOS>ATOM
      1 O1          1.2591   12.6088   45.8464 O.2       1 <1>        -0.3812 
      2 C2          0.1399   13.0461   46.0597 C.2       1 <1>         0.1996 
      3 C3         -0.1959   13.3999   47.4835 C.3       1 <1>         0.0497 
      4 C4         -1.6440   12.9576   47.7748 C.3       1 <1>        -0.0077 
      5 C5         -2.5247   13.5590   46.6820 C.ar      1 <1>        -0.0322 
      6 C6         -1.9913   13.6995   45.3947 C.ar      1 <1>         0.0502 
      7 N7         -0.7481   13.2186   45.1095 N.pl3     1 <1>        -0.2409 
      8 C8         -0.4030   12.8297   43.7352 C.3       1 <1>         0.0336 
      9 H1         -0.0902   14.4866   47.6034 H         1 <1>         0.0529 
     10 H2          0.4967   12.9027   48.1816 H         1 <1>         0.0529 
     11 C11        -2.7727   14.3371   44.4217 C.ar      1 <1>        -0.0607 
     12 C12        -4.0866   14.7244   44.7002 C.ar      1 <1>        -0.0617 
     13 C13        -4.6172   14.5682   45.9834 C.ar      1 <1>         0.0440 
     14 C14        -3.8354   13.9560   46.9670 C.ar      1 <1>        -0.0529 
     15 N15        -5.9325   15.0295   46.2644 N.am      1 <1>        -0.1984 
     16 S16        -6.3457   15.9412   47.5853 S.o2      1 <1>         0.0668 
     17 O17        -7.7871   16.0925   47.5965 O.2       1 <1>        -0.1483 
     18 O18        -5.6882   15.4515   48.7776 O.2       1 <1>        -0.1483 
     19 C19        -5.6278   17.5359   47.1437 C.3       1 <1>         0.1200 
     20 C20        -4.1415   17.3865   46.7948 C.ar      1 <1>        -0.0266 
     21 C21        -3.2175   17.0645   47.7942 C.ar      1 <1>        -0.0652 
     22 C22        -1.8658   16.8945   47.4815 C.ar      1 <1>        -0.0670 
     23 C23        -1.4220   17.0338   46.1618 C.ar      1 <1>        -0.0528 
     24 C24        -2.3428   17.3737   45.1659 C.ar      1 <1>        -0.0670 
     25 C25        -3.6908   17.5640   45.4818 C.ar      1 <1>        -0.0652 
     26 H3         -1.9478   13.3019   48.7768 H         1 <1>         0.0425 
     27 H4         -1.7316   11.8605   47.7288 H         1 <1>         0.0425 
     28 H5          0.3703   12.0467   43.6928 H         1 <1>         0.0514 
     29 H6         -0.0254   13.7112   43.1952 H         1 <1>         0.0514 
     30 H7         -1.2778   12.4241   43.2037 H         1 <1>         0.0514 
     31 H8         -2.3741   14.5519   43.4370 H         1 <1>         0.0470 
     32 H9         -4.6960   15.1608   43.9155 H         1 <1>         0.0398 
     33 H10        -4.2413   13.7695   47.9520 H         1 <1>         0.0392 
     34 H11        -6.6384   14.8987   45.5686 H         1 <1>         0.2114 
     35 H12        -5.7474   18.2235   47.9937 H         1 <1>         0.0674 
     36 H13        -6.1976   17.9342   46.2916 H         1 <1>         0.0674 
     37 H14        -3.5470   16.9446   48.8210 H         1 <1>         0.0540 
     38 H15        -1.1652   16.6557   48.2744 H         1 <1>         0.0540 
     39 H16        -2.0115   17.4891   44.1387 H         1 <1>         0.0540 
     40 H17        -4.3835   17.8446   44.6951 H         1 <1>         0.0540 
     41 H18         0.6987   16.7916   46.6737 H         1 <1>         0.0378 
     42 H19         0.3884   17.6523   45.1431 H         1 <1>         0.0378 
     43 H20         0.1489   15.8803   45.2327 H         1 <1>         0.0378 
     44 C45         0.0499   16.8258   45.7859 C.3       1 <1>        -0.0343 
@<TRIPOS>BOND
     1    2    1 2    
     2    2    3 1    
     3    3    4 1    
     4    4    5 1    
     5    5    6 ar   
     6    6    7 1    
     7    2    7 1    
     8    7    8 1    
     9    3    9 1    
    10    3   10 1    
    11    6   11 ar   
    12   11   12 ar   
    13   12   13 ar   
    14   13   14 ar   
    15    5   14 ar   
    16   13   15 1    
    17   15   16 1    
    18   16   17 2    
    19   16   18 2    
    20   16   19 1    
    21   19   20 1    
    22   20   21 ar   
    23   21   22 ar   
    24   22   23 ar   
    25   23   24 ar   
    26   24   25 ar   
    27   20   25 ar   
    28    4   26 1    
    29    4   27 1    
    30    8   28 1    
    31    8   29 1    
    32    8   30 1    
    33   11   31 1    
    34   12   32 1    
    35   14   33 1    
    36   15   34 1    
    37   19   35 1    
    38   19   36 1    
    39   21   37 1    
    40   22   38 1    
    41   24   39 1    
    42   25   40 1    
    43   44   41 1    
    44   44   42 1    
    45   44   43 1    
    46   23   44 1    
@<TRIPOS>SUBSTRUCTURE
     1 ****        2 TEMP              0 ****  ****    0 ROOT 
@<TRIPOS>NORMAL
@<TRIPOS>FF_PBC
FORCE_FIELD_SETUP_FEATURE Force Field Setup information
v1.0  0 0.000000 0.000000 0.000000 0.000000 0.000000 0.000000 NONE 0 0 0 0 1 0 0 0 0 0 0 0 0
