#	Name:			PISM00621
#	Creating user name:	baoopengkun
#	Creation time:		Mon Dec 10 11:17:10 2018

#	Modifying user name:	baoopengkun
#	Modification time:	Mon Dec 10 11:17:22 2018

@<TRIPOS>MOLECULE
PISM00621
   55    58     1     2     0
SMALL
GAST_HUCK


@<TRIPOS>ATOM
      1 C1         12.8782    0.5189  -31.0425 C.ar      1 <1>        -0.0348 
      2 C2         12.2748   -0.7101  -30.7619 C.ar      1 <1>        -0.0180 
      3 C3         11.7842   -1.5010  -31.8045 C.ar      1 <1>         0.0714 
      4 C4         11.8756   -1.0515  -33.1243 C.ar      1 <1>        -0.0180 
      5 C5         12.4858    0.1745  -33.4042 C.ar      1 <1>        -0.0348 
      6 C6         13.0133    0.9496  -32.3662 C.ar      1 <1>         0.0068 
      7 C7         13.7345    2.2674  -32.6767 C.3       1 <1>         0.1921 
      8 C8         12.6978    3.4102  -32.7394 C.3       1 <1>         0.1073 
      9 N9         11.8515    3.3931  -31.5540 N.pl3     1 <1>        -0.1814 
     10 N10        12.0606    4.0792  -30.3956 N.2       1 <1>        -0.1908 
     11 C11        11.1396    3.8908  -29.5254 C.2       1 <1>         0.0618 
     12 N12        10.2702    2.9984  -30.2416 N.2       1 <1>        -0.2870 
     13 C13        10.7294    2.7623  -31.3851 C.2       1 <1>         0.1270 
     14 O14        14.7801    2.5498  -31.7369 O.3       1 <1>        -0.3814 
     15 C15        15.8447    1.6455  -32.0401 C.3       1 <1>         0.0672 
     16 C16        15.7742    1.6190  -33.5863 C.3       1 <1>         0.1000 
     17 O17        14.4864    2.1802  -33.8965 O.3       1 <1>        -0.3758 
     18 C18        15.9739    0.1969  -34.1696 C.3       1 <1>         0.0952 
     19 O19        15.0129   -0.7119  -33.6082 O.3       1 <1>        -0.3192 
     20 C20        15.1685   -2.0400  -34.0003 C.ar      1 <1>         0.1199 
     21 C21        14.3855   -2.5471  -35.0398 C.ar      1 <1>        -0.0415 
     22 C22        14.5263   -3.8803  -35.4322 C.ar      1 <1>        -0.0819 
     23 C23        15.4586   -4.6968  -34.7865 C.ar      1 <1>        -0.0819 
     24 C24        16.2475   -4.1857  -33.7506 C.ar      1 <1>        -0.0415 
     25 C25        16.1025   -2.8514  -33.3469 C.ar      1 <1>         0.1200 
     26 O26        16.8631   -2.2956  -32.3058 O.3       1 <1>        -0.3194 
     27 C27        17.7525   -3.0804  -31.4955 C.3       1 <1>         0.0779 
     28 C28        18.3516   -2.1465  -30.4171 C.3       1 <1>         0.0026 
     29 Cl29       11.0535   -3.0547  -31.4578 Cl        1 <1>        -0.0420 
     30 H1         13.2418    1.1415  -30.2303 H         1 <1>         0.0849 
     31 H2         12.1866   -1.0516  -29.7357 H         1 <1>         0.0703 
     32 H3         11.4742   -1.6572  -33.9303 H         1 <1>         0.0703 
     33 H4         12.5584    0.5215  -34.4297 H         1 <1>         0.0849 
     34 H5         12.0857    3.2932  -33.6464 H         1 <1>         0.0595 
     35 H6         13.2320    4.3701  -32.7988 H         1 <1>         0.0595 
     36 H7         11.0435    4.2979  -28.5201 H         1 <1>         0.0863 
     37 H8         10.2420    2.1170  -32.1149 H         1 <1>         0.1361 
     38 H9         15.6290    0.6585  -31.6010 H         1 <1>         0.0576 
     39 H10        16.8068    2.0062  -31.6455 H         1 <1>         0.0576 
     40 H11        16.5180    2.3117  -34.0140 H         1 <1>         0.0635 
     41 H12        16.9972   -0.1378  -33.9329 H         1 <1>         0.0635 
     42 H13        15.8516    0.2362  -35.2639 H         1 <1>         0.0635 
     43 H14        13.6707   -1.9016  -35.5390 H         1 <1>         0.0509 
     44 H15        13.9144   -4.2797  -36.2354 H         1 <1>         0.0495 
     45 H16        15.5702   -5.7329  -35.0919 H         1 <1>         0.0495 
     46 H17        16.9641   -4.8461  -33.2782 H         1 <1>         0.0509 
     47 H18        18.5718   -3.4940  -32.1060 H         1 <1>         0.0635 
     48 H19        17.2006   -3.9000  -31.0063 H         1 <1>         0.0635 
     49 C49        19.2853   -2.9188  -29.5150 C.2       1 <1>        -0.0867 
     50 H20        17.5370   -1.7194  -29.8105 H         1 <1>         0.0468 
     51 H21        18.8680   -1.3133  -30.9207 H         1 <1>         0.0468 
     52 H22        18.8607   -3.7095  -28.8934 H         1 <1>         0.0673 
     53 C53        20.6007   -2.6797  -29.4460 C.2       1 <1>        -0.1174 
     54 H23        21.2349   -3.2646  -28.7792 H         1 <1>         0.0290 
     55 H24        21.0755   -1.9035  -30.0456 H         1 <1>         0.0290 
@<TRIPOS>BOND
     1    2    1 ar   
     2    2    3 ar   
     3    3    4 ar   
     4    4    5 ar   
     5    5    6 ar   
     6    1    6 ar   
     7    6    7 1    
     8    7    8 1    
     9    8    9 1    
    10    9   10 1    
    11   10   11 2    
    12   11   12 1    
    13   12   13 2    
    14    9   13 1    
    15    7   14 1    
    16   14   15 1    
    17   15   16 1    
    18   16   17 1    
    19    7   17 1    
    20   16   18 1    
    21   18   19 1    
    22   19   20 1    
    23   20   21 ar   
    24   21   22 ar   
    25   22   23 ar   
    26   23   24 ar   
    27   24   25 ar   
    28   20   25 ar   
    29   25   26 1    
    30   26   27 1    
    31   27   28 1    
    32    3   29 1    
    33    1   30 1    
    34    2   31 1    
    35    4   32 1    
    36    5   33 1    
    37    8   34 1    
    38    8   35 1    
    39   11   36 1    
    40   13   37 1    
    41   15   38 1    
    42   15   39 1    
    43   16   40 1    
    44   18   41 1    
    45   18   42 1    
    46   21   43 1    
    47   22   44 1    
    48   23   45 1    
    49   24   46 1    
    50   27   47 1    
    51   27   48 1    
    52   28   49 1    
    53   28   50 1    
    54   28   51 1    
    55   49   52 1    
    56   49   53 2    
    57   53   54 1    
    58   53   55 1    
@<TRIPOS>SUBSTRUCTURE
     1 ****        2 TEMP              0 ****  ****    0 ROOT 
@<TRIPOS>NORMAL
@<TRIPOS>FF_PBC
FORCE_FIELD_SETUP_FEATURE Force Field Setup information
v1.0  0 0.000000 0.000000 0.000000 0.000000 0.000000 0.000000 NONE 0 0 0 0 1 0 0 0 0 0 0 0 0
@<TRIPOS>RENDERING_ATTRS
ANTIALIASED_LINES 
*
