#	Name:			PISM01148
#	Creating user name:	14062
#	Creation time:		Sat Apr 06 10:29:04 2019

#	Modifying user name:	14062
#	Modification time:	Sat Apr 06 10:31:28 2019

@<TRIPOS>MOLECULE
PISM01148
   44    48     1     1     0
SMALL
GAST_HUCK


@<TRIPOS>ATOM
      1 C1         -3.6074   -9.7596   -4.9807 C.3       1 <1>         0.0047 
      2 C2         -4.6718   -9.0139   -5.8417 C.3       1 <1>         0.1891 
      3 C3         -5.4434  -10.1356   -6.5898 C.3       1 <1>         0.1210 
      4 C4         -6.4653  -10.6038   -5.5560 C.3       1 <1>         0.0287 
      5 C5         -5.8540  -10.6406   -4.1443 C.3       1 <1>         0.0147 
      6 C6         -4.3214  -10.9363   -4.2273 C.3       1 <1>        -0.0376 
      7 C7         -6.6696  -11.6840   -3.2930 C.3       1 <1>        -0.0077 
      8 C8         -7.8836  -12.3252   -3.9803 C.2       1 <1>        -0.0721 
      9 C9         -8.0383  -12.3858   -5.3168 C.2       1 <1>        -0.0749 
     10 C10        -6.9788  -11.8569   -6.2390 C.3       1 <1>         0.1011 
     11 C11        -6.4548  -10.1936   -7.7002 C.2       1 <1>         0.2441 
     12 O12        -7.3277  -11.2144   -7.4959 O.3       1 <1>        -0.2675 
     13 O13        -6.5001   -9.4217   -8.6424 O.2       1 <1>        -0.3698 
     14 O14        -4.0615   -8.0900   -6.7451 O.3       1 <1>        -0.3624 
     15 C15        -6.9239  -11.1607   -1.8490 C.3       1 <1>        -0.0387 
     16 C16        -7.7659  -12.1523   -1.0121 C.3       1 <1>        -0.0361 
     17 C17        -9.1350  -12.3468   -1.7082 C.3       1 <1>        -0.0048 
     18 C18        -8.9193  -12.9941   -3.0972 C.3       1 <1>        -0.0148 
     19 C19       -10.0198  -13.2352   -0.8605 C.2       1 <1>        -0.0843 
     20 C20       -11.2418  -12.8768   -0.4471 C.2       1 <1>        -0.1171 
     21 O21        -5.5186   -8.3102   -4.8986 O.3       1 <1>        -0.3456 
     22 C22        -5.9159   -9.1220   -3.7543 C.3       1 <1>         0.0593 
     23 H1         -3.1697   -9.0319   -4.2778 H         1 <1>         0.0319 
     24 H2         -2.7853  -10.1407   -5.6085 H         1 <1>         0.0319 
     25 H3         -4.7006  -10.8759   -6.9296 H         1 <1>         0.0613 
     26 H4         -7.3555   -9.9374   -5.4963 H         1 <1>         0.0381 
     27 H5         -4.1708  -11.8927   -4.7545 H         1 <1>         0.0275 
     28 H6         -3.8931  -11.0456   -3.2175 H         1 <1>         0.0275 
     29 H7         -6.0221  -12.5672   -3.1663 H         1 <1>         0.0452 
     30 H8         -8.9083  -12.8490   -5.7819 H         1 <1>         0.0271 
     31 H9         -6.2093  -12.6349   -6.3799 H         1 <1>         0.0729 
     32 H10        -4.7303   -7.6197   -7.2320 H         1 <1>         0.2129 
     33 H11        -7.4888  -10.2185   -1.8633 H         1 <1>         0.0291 
     34 H12        -5.9618  -10.9729   -1.3432 H         1 <1>         0.0291 
     35 H13        -7.9242  -11.7440    0.0007 H         1 <1>         0.0296 
     36 H14        -7.2370  -13.1145   -0.9156 H         1 <1>         0.0296 
     37 H15        -9.6130  -11.3629   -1.8545 H         1 <1>         0.0499 
     38 H16        -9.8988  -13.0599   -3.5991 H         1 <1>         0.0439 
     39 H17        -8.5553  -14.0227   -2.9455 H         1 <1>         0.0439 
     40 H18        -9.6402  -14.2177   -0.5746 H         1 <1>         0.0676 
     41 H19       -11.6753  -11.9101   -0.7018 H         1 <1>         0.0290 
     42 H20       -11.8405  -13.5541    0.1625 H         1 <1>         0.0290 
     43 H21        -6.9275   -8.7639   -3.5107 H         1 <1>         0.0568 
     44 H22        -5.2715   -8.9066   -2.8869 H         1 <1>         0.0568 
@<TRIPOS>BOND
     1    2    1 1    
     2    2    3 1    
     3    3    4 1    
     4    4    5 1    
     5    5    6 1    
     6    1    6 1    
     7    5    7 1    
     8    7    8 1    
     9    8    9 2    
    10    9   10 1    
    11    4   10 1    
    12    3   11 1    
    13   11   12 1    
    14   10   12 1    
    15   11   13 2    
    16    2   14 1    
    17    7   15 1    
    18   15   16 1    
    19   16   17 1    
    20   17   18 1    
    21    8   18 1    
    22   17   19 1    
    23   19   20 2    
    24    2   21 1    
    25   21   22 1    
    26    5   22 1    
    27    1   23 1    
    28    1   24 1    
    29    3   25 1    
    30    4   26 1    
    31    6   27 1    
    32    6   28 1    
    33    7   29 1    
    34    9   30 1    
    35   10   31 1    
    36   14   32 1    
    37   15   33 1    
    38   15   34 1    
    39   16   35 1    
    40   16   36 1    
    41   17   37 1    
    42   18   38 1    
    43   18   39 1    
    44   19   40 1    
    45   20   41 1    
    46   20   42 1    
    47   22   43 1    
    48   22   44 1    
@<TRIPOS>SUBSTRUCTURE
     1 ****        2 TEMP              0 ****  ****    0 ROOT 
@<TRIPOS>NORMAL
@<TRIPOS>FF_PBC
FORCE_FIELD_SETUP_FEATURE Force Field Setup information
v1.0  0 0.000000 0.000000 0.000000 0.000000 0.000000 0.000000 NONE 0 0 0 0 1 0 0 0 0 0 0 0 0
