#	Name:			PISM00521
#	Creating user name:	baoopengkun
#	Creation time:		Thu Jan 24 22:32:07 2019

#	Modifying user name:	baoopengkun
#	Modification time:	Thu Jan 24 22:34:05 2019

@<TRIPOS>MOLECULE
PISM00521
   46    46     1     1     0
SMALL
GAST_HUCK


@<TRIPOS>ATOM
      1 C1         21.3578    3.9062  -31.6395 C.ar      1 <1>        -0.0686 
      2 C2         22.1431    2.8253  -32.0518 C.ar      1 <1>        -0.0603 
      3 C3         23.5334    2.8543  -31.8869 C.ar      1 <1>        -0.0413 
      4 C4         24.1361    4.0087  -31.3748 C.ar      1 <1>        -0.0603 
      5 C5         23.3528    5.0913  -30.9605 C.ar      1 <1>        -0.0686 
      6 C6         21.9595    5.0301  -31.0699 C.ar      1 <1>        -0.0687 
      7 C7         24.3966    1.6358  -32.2522 C.3       1 <1>         0.0008 
      8 C8         25.1365    1.8242  -33.6082 C.3       1 <1>         0.0585 
      9 N9         24.1440    2.1951  -34.6454 N.3       1 <1>        -0.3216 
     10 C10        25.8631    0.5085  -34.0283 C.3       1 <1>         0.1605 
     11 O11        26.4091    0.5731  -35.3641 O.3       1 <1>        -0.3697 
     12 C12        26.7541   -0.0748  -32.9342 C.2       1 <1>         0.2090 
     13 O13        26.2249   -0.9350  -32.2476 O.2       1 <1>        -0.3940 
     14 N14        28.0381    0.2431  -32.6211 N.am      1 <1>        -0.2621 
     15 C15        28.8661    1.2193  -33.3336 C.3       1 <1>         0.1423 
     16 C16        29.7420    2.0099  -32.3727 C.2       1 <1>         0.2571 
     17 O17        29.5842    3.2109  -32.2381 O.2       1 <1>        -0.3680 
     18 O18        30.7038    1.4090  -31.6611 O.3       1 <1>        -0.2910 
     19 C19        29.7059    0.4887  -34.4225 C.3       1 <1>        -0.0087 
     20 C20        30.7716    1.3812  -35.1302 C.3       1 <1>        -0.0424 
     21 C21        31.5307    0.5423  -36.1983 C.3       1 <1>        -0.0624 
     22 C22        30.1421    2.6360  -35.7971 C.3       1 <1>        -0.0624 
     23 H1         20.2778    3.8730  -31.7601 H         1 <1>         0.0599 
     24 H2         21.6617    1.9613  -32.5009 H         1 <1>         0.0557 
     25 H3         25.2168    4.0677  -31.2928 H         1 <1>         0.0557 
     26 H4         23.8259    5.9791  -30.5534 H         1 <1>         0.0599 
     27 H5         21.3487    5.8550  -30.7134 H         1 <1>         0.0559 
     28 H6         23.7569    0.7413  -32.3069 H         1 <1>         0.0443 
     29 H7         25.1205    1.4753  -31.4384 H         1 <1>         0.0443 
     30 H8         25.8856    2.6278  -33.5018 H         1 <1>         0.0532 
     31 H9         24.5713    2.1216  -35.6369 H         1 <1>         0.1188 
     32 H10        23.7733    3.2008  -34.4915 H         1 <1>         0.1188 
     33 H11        25.0597   -0.2338  -34.1713 H         1 <1>         0.0855 
     34 H12        26.9715    1.3153  -35.5424 H         1 <1>         0.2134 
     35 H13        28.4544   -0.2597  -31.8607 H         1 <1>         0.1885 
     36 H14        28.2297    1.9838  -33.7920 H         1 <1>         0.0816 
     37 H15        30.8003    0.4771  -31.8017 H         1 <1>         0.2540 
     38 H16        29.0245    0.0639  -35.1743 H         1 <1>         0.0316 
     39 H17        30.2232   -0.3631  -33.9546 H         1 <1>         0.0316 
     40 H18        31.5152    1.7230  -34.3885 H         1 <1>         0.0298 
     41 H19        32.3136    1.1468  -36.6838 H         1 <1>         0.0232 
     42 H20        30.8353    0.1872  -36.9745 H         1 <1>         0.0232 
     43 H21        32.0142   -0.3322  -35.7348 H         1 <1>         0.0232 
     44 H22        30.9069    3.1916  -36.3619 H         1 <1>         0.0232 
     45 H23        29.7264    3.3246  -35.0466 H         1 <1>         0.0232 
     46 H24        29.3415    2.3404  -36.4923 H         1 <1>         0.0232 
@<TRIPOS>BOND
     1    2    1 ar   
     2    2    3 ar   
     3    3    4 ar   
     4    4    5 ar   
     5    5    6 ar   
     6    1    6 ar   
     7    3    7 1    
     8    7    8 1    
     9    8    9 1    
    10    8   10 1    
    11   10   11 1    
    12   10   12 1    
    13   12   13 2    
    14   12   14 am   
    15   14   15 1    
    16   15   16 1    
    17   16   17 2    
    18   16   18 1    
    19   15   19 1    
    20   19   20 1    
    21   20   21 1    
    22   20   22 1    
    23    1   23 1    
    24    2   24 1    
    25    4   25 1    
    26    5   26 1    
    27    6   27 1    
    28    7   28 1    
    29    7   29 1    
    30    8   30 1    
    31    9   31 1    
    32    9   32 1    
    33   10   33 1    
    34   11   34 1    
    35   14   35 1    
    36   15   36 1    
    37   18   37 1    
    38   19   38 1    
    39   19   39 1    
    40   20   40 1    
    41   21   41 1    
    42   21   42 1    
    43   21   43 1    
    44   22   44 1    
    45   22   45 1    
    46   22   46 1    
@<TRIPOS>SUBSTRUCTURE
     1 ****        2 TEMP              0 ****  ****    0 ROOT 
@<TRIPOS>NORMAL
@<TRIPOS>FF_PBC
FORCE_FIELD_SETUP_FEATURE Force Field Setup information
v1.0  0 0.000000 0.000000 0.000000 0.000000 0.000000 0.000000 NONE 0 0 0 0 1 0 0 0 0 0 0 0 0
