#	Name:			PISM01090
#	Creating user name:	Qinrunwen
#	Creation time:		Mon Apr 01 13:19:21 2019

#	Modifying user name:	Qinrunwen
#	Modification time:	Mon Apr 01 13:23:46 2019

@<TRIPOS>MOLECULE
PISM01090
   43    44     1     1     0
SMALL
GAST_HUCK


@<TRIPOS>ATOM
      1 C1         10.5955   34.5492   -2.0838 C.ar      1 <1>        -0.0540 
      2 C2          9.8633   33.6374   -2.8550 C.ar      1 <1>        -0.0687 
      3 C3         10.2419   32.2936   -2.9264 C.ar      1 <1>        -0.0394 
      4 C4         11.3553   31.8436   -2.2154 C.ar      1 <1>         0.0873 
      5 C5         12.0953   32.7441   -1.4470 C.ar      1 <1>        -0.0394 
      6 C6         11.7159   34.0886   -1.3766 C.ar      1 <1>        -0.0687 
      7 C7         10.1164   36.0132   -2.0642 C.3       1 <1>        -0.0271 
      8 C8         10.9604   36.9943   -1.2091 C.3       1 <1>        -0.0569 
      9 O9         11.7244   30.4996   -2.2737 O.3       1 <1>        -0.3012 
     10 C10        11.0317   29.6622   -1.3269 C.3       1 <1>         0.1646 
     11 C11        11.3844   28.1993   -1.4934 C.2       1 <1>         0.2464 
     12 N12        11.2290   27.3751   -0.4907 N.pl3     1 <1>        -0.1739 
     13 N13        11.5351   26.0648   -0.6507 N.2       1 <1>        -0.1891 
     14 C14        11.9054   25.3175    0.3120 C.2       1 <1>         0.0353 
     15 C15        12.2262   23.8623    0.0501 C.ar      1 <1>        -0.0196 
     16 C16        12.7638   23.0615    1.0638 C.ar      1 <1>        -0.0264 
     17 C17        13.1116   21.7336    0.8050 C.ar      1 <1>         0.0902 
     18 C18        12.8792   21.1863   -0.4594 C.ar      1 <1>        -0.0335 
     19 C19        12.3077   21.9699   -1.4650 C.ar      1 <1>        -0.0703 
     20 C20        11.9926   23.3078   -1.2125 C.ar      1 <1>        -0.0652 
     21 O21        11.7955   27.8157   -2.5764 O.2       1 <1>        -0.3737 
     22 O22        13.7012   20.9643    1.8094 O.3       1 <1>        -0.3216 
     23 C23        12.8475   19.9742    2.4045 C.3       1 <1>         0.0593 
     24 H1          8.9895   33.9729   -3.4068 H         1 <1>         0.0530 
     25 H2          9.6749   31.5967   -3.5344 H         1 <1>         0.0525 
     26 H3         12.9678   32.3950   -0.9045 H         1 <1>         0.0525 
     27 H4         12.3079   34.7580   -0.7643 H         1 <1>         0.0530 
     28 H5          9.0836   36.0191   -1.6809 H         1 <1>         0.0402 
     29 H6         10.0994   36.3788   -3.1047 H         1 <1>         0.0402 
     30 H7         10.9588   36.6852   -0.1528 H         1 <1>         0.0249 
     31 H8         10.5327   38.0083   -1.2697 H         1 <1>         0.0249 
     32 H9         11.9983   37.0401   -1.5739 H         1 <1>         0.0249 
     33 H10         9.9428   29.7465   -1.4627 H         1 <1>         0.0866 
     34 H11        11.2980   29.9981   -0.3135 H         1 <1>         0.0866 
     35 H12        10.8694   27.7137    0.4148 H         1 <1>         0.2339 
     36 H13        12.0042   25.7155    1.3200 H         1 <1>         0.0800 
     37 H14        12.9199   23.4642    2.0586 H         1 <1>         0.0535 
     38 H15        13.1463   20.1547   -0.6598 H         1 <1>         0.0540 
     39 H16        12.1125   21.5428   -2.4434 H         1 <1>         0.0589 
     40 H17        11.5674   23.9153   -2.0059 H         1 <1>         0.0527 
     41 H18        13.4269   19.4486    3.1790 H         1 <1>         0.0577 
     42 H19        12.5097   19.2377    1.6594 H         1 <1>         0.0577 
     43 H20        11.9719   20.4477    2.8764 H         1 <1>         0.0577 
@<TRIPOS>BOND
     1    2    1 ar   
     2    2    3 ar   
     3    3    4 ar   
     4    4    5 ar   
     5    6    5 ar   
     6    1    6 ar   
     7    1    7 1    
     8    7    8 1    
     9    4    9 1    
    10    9   10 1    
    11   10   11 1    
    12   11   12 1    
    13   12   13 1    
    14   13   14 2    
    15   14   15 1    
    16   15   16 ar   
    17   16   17 ar   
    18   17   18 ar   
    19   18   19 ar   
    20   19   20 ar   
    21   15   20 ar   
    22   11   21 2    
    23   17   22 1    
    24   22   23 1    
    25    2   24 1    
    26    3   25 1    
    27    5   26 1    
    28    6   27 1    
    29    7   28 1    
    30    7   29 1    
    31    8   30 1    
    32    8   31 1    
    33    8   32 1    
    34   10   33 1    
    35   10   34 1    
    36   12   35 1    
    37   14   36 1    
    38   16   37 1    
    39   18   38 1    
    40   19   39 1    
    41   20   40 1    
    42   23   41 1    
    43   23   42 1    
    44   23   43 1    
@<TRIPOS>SUBSTRUCTURE
     1 ****        2 TEMP              0 ****  ****    0 ROOT 
@<TRIPOS>NORMAL
@<TRIPOS>FF_PBC
FORCE_FIELD_SETUP_FEATURE Force Field Setup information
v1.0  0 0.000000 0.000000 0.000000 0.000000 0.000000 0.000000 NONE 0 0 0 0 1 0 0 0 0 0 0 0 0
