#	Name:			PISM00432
#	Creating user name:	malab
#	Creation time:		Wed Apr 10 00:20:22 2019

#	Modifying user name:	malab
#	Modification time:	Wed Apr 10 00:23:37 2019

@<TRIPOS>MOLECULE
PISM00432
   42    43     1     2     0
SMALL
USER_CHARGES


@<TRIPOS>ATOM
      1 C1        -10.8690   -6.0813   16.6943 C.3       1 <1>         0.0000 
      2 C2        -10.8870   -5.5044   18.1383 C.3       1 <1>         0.0000 
      3 C3        -12.3019   -5.4395   18.6367 C.2       1 <1>         0.0000 
      4 C4        -13.4113   -5.0578   17.6818 C.ar      1 <1>         0.0000 
      5 C5        -13.1260   -4.8718   16.3233 C.ar      1 <1>         0.0000 
      6 C6        -11.7049   -5.1301   15.7745 C.3       1 <1>         0.0000 
      7 C7        -14.7148   -4.8878   18.1603 C.ar      1 <1>         0.0000 
      8 C8        -15.7375   -4.4941   17.2959 C.ar      1 <1>         0.0000 
      9 C9        -15.4510   -4.2575   15.9494 C.ar      1 <1>         0.0000 
     10 C10       -14.1482   -4.4336   15.4710 C.ar      1 <1>         0.0000 
     11 O11       -12.5472   -5.6915   19.8053 O.2       1 <1>         0.0000 
     12 C12       -11.4406   -7.5349   16.7124 C.3       1 <1>         0.0000 
     13 C13        -9.3888   -6.1428   16.2082 C.3       1 <1>         0.0000 
     14 H3        -10.4650   -4.4871   18.1674 H         1 <1>         0.0000 
     15 H4        -10.2903   -6.1426   18.8119 H         1 <1>         0.0000 
     16 O16       -11.0635   -3.8401   15.7619 O.3       1 <1>         0.0000 
     17 C17       -11.7155   -5.6631   14.3571 C.2       1 <1>         0.0000 
     18 H7        -14.9413   -5.0566   19.2072 H         1 <1>         0.0000 
     19 H8        -16.7501   -4.3681   17.6669 H         1 <1>         0.0000 
     20 H9        -16.2390   -3.9358   15.2747 H         1 <1>         0.0000 
     21 H10       -13.9424   -4.2195   14.4264 H         1 <1>         0.0000 
     22 C22       -12.5916   -6.5698   13.9076 C.2       1 <1>         0.0000 
     23 C23       -12.6043   -7.0725   12.5170 C.2       1 <1>         0.0000 
     24 C24       -11.2921   -7.1345   11.7662 C.3       1 <1>         0.0000 
     25 C25       -13.7315   -7.4852   11.9128 C.2       1 <1>         0.0000 
     26 C26       -15.1106   -7.4845   12.4480 C.2       1 <1>         0.0000 
     27 O27       -15.9688   -8.1201   11.8496 O.2       1 <1>         0.0000 
     28 O28       -15.4188   -6.7951   13.5528 O.3       1 <1>         0.0000 
     29 H1        -10.9110   -8.1413   17.4641 H         1 <1>         0.0000 
     30 H2        -11.3063   -8.0339   15.7417 H         1 <1>         0.0000 
     31 H5        -12.5110   -7.5566   16.9629 H         1 <1>         0.0000 
     32 H6         -8.9293   -5.1431   16.2038 H         1 <1>         0.0000 
     33 H11        -9.3145   -6.5591   15.1927 H         1 <1>         0.0000 
     34 H12        -8.7938   -6.7847   16.8770 H         1 <1>         0.0000 
     35 H13       -11.5001   -3.2103   15.1966 H         1 <1>         0.0000 
     36 H14       -10.9537   -5.2634   13.6876 H         1 <1>         0.0000 
     37 H15       -13.3238   -6.9539   14.6117 H         1 <1>         0.0000 
     38 H16       -11.2787   -7.9514   11.0311 H         1 <1>         0.0000 
     39 H17       -10.4568   -7.3100   12.4602 H         1 <1>         0.0000 
     40 H18       -11.1339   -6.1820   11.2349 H         1 <1>         0.0000 
     41 H19       -13.6494   -7.8671   10.8936 H         1 <1>         0.0000 
     42 H20       -16.3294   -6.8728   13.8204 H         1 <1>         0.0000 
@<TRIPOS>BOND
     1    2    1 1    
     2    2    3 1    
     3    3    4 1    
     4    4    5 ar   
     5    5    6 1    
     6    1    6 1    
     7    4    7 ar   
     8    7    8 ar   
     9    8    9 ar   
    10    9   10 ar   
    11    5   10 ar   
    12    3   11 2    
    13    1   12 1    
    14    1   13 1    
    15    2   14 1    
    16    2   15 1    
    17    6   16 1    
    18    6   17 1    
    19    7   18 1    
    20    8   19 1    
    21    9   20 1    
    22   10   21 1    
    23   17   22 2    
    24   22   23 1    
    25   23   24 1    
    26   23   25 2    
    27   25   26 1    
    28   26   27 2    
    29   26   28 1    
    30   12   29 1    
    31   12   30 1    
    32   12   31 1    
    33   13   32 1    
    34   13   33 1    
    35   13   34 1    
    36   16   35 1    
    37   17   36 1    
    38   22   37 1    
    39   24   38 1    
    40   24   39 1    
    41   24   40 1    
    42   25   41 1    
    43   28   42 1    
@<TRIPOS>SUBSTRUCTURE
     1 ****        2 TEMP              0 ****  ****    0 ROOT 
@<TRIPOS>NORMAL
@<TRIPOS>FF_PBC
FORCE_FIELD_SETUP_FEATURE Force Field Setup information
v1.0  0 0.000000 0.000000 0.000000 0.000000 0.000000 0.000000 NONE 0 0 0 0 0 0 0 0 0 0 0 0 0
@<TRIPOS>RENDERING_ATTRS
ANTIALIASED_LINES 
*
