#	Name:			PISM00315
#	Creating user name:	malab
#	Creation time:		Fri Apr 05 16:54:22 2019

#	Modifying user name:	malab
#	Modification time:	Fri Apr 05 16:55:47 2019

@<TRIPOS>MOLECULE
PISM00315
   40    42     1     1     0
SMALL
GAST_HUCK


@<TRIPOS>ATOM
      1 C1        -10.1378   -1.7320    1.7164 C.ar      1 <1>        -0.0574 
      2 C2         -9.9436   -0.7073    2.6459 C.ar      1 <1>         0.0309 
      3 C3        -10.2108    0.6166    2.2901 C.ar      1 <1>        -0.0574 
      4 C4        -10.6540    0.9158    0.9986 C.ar      1 <1>        -0.0679 
      5 C5        -10.7730   -0.0977    0.0404 C.ar      1 <1>        -0.0520 
      6 C6        -10.5748   -1.4283    0.4236 C.ar      1 <1>        -0.0679 
      7 Cl7        -9.3673   -1.0828    4.2569 Cl        1 <1>        -0.0785 
      8 C8        -11.1289    0.2125   -1.3979 C.2       1 <1>        -0.0349 
      9 C9        -10.4592    1.0452   -2.2131 C.2       1 <1>         0.1383 
     10 C10        -9.1649    1.7701   -1.8788 C.3       1 <1>         0.1644 
     11 C11        -7.8775    0.8888   -2.0844 C.3       1 <1>         0.1028 
     12 O12        -9.7596    4.4237   -4.2581 O.3       1 <1>        -0.3477 
     13 C13        -6.6115    1.7804   -1.9137 C.3       1 <1>        -0.0066 
     14 H1         -9.9444   -2.7633    1.9966 H         1 <1>         0.0000 
     15 O15        -9.1483    3.0753   -2.4982 O.3       1 <1>        -0.3046 
     16 C16        -9.3625    3.0838   -3.9199 C.3       1 <1>         0.2503 
     17 H2        -10.0753    1.4099    3.0189 H         1 <1>         0.0000 
     18 C18       -10.4846    2.1416   -4.2497 C.2       1 <1>         0.2234 
     19 N19       -10.9358    1.2595   -3.4102 N.pl3     1 <1>        -0.1141 
     20 N20       -11.9904    0.6992   -4.0731 N.2       1 <1>        -0.1826 
     21 C21       -12.1751    1.1530   -5.2576 C.2       1 <1>         0.0526 
     22 N22       -11.1269    2.1293   -5.3261 N.2       1 <1>        -0.2871 
     23 H3        -10.9140    1.9388    0.7477 H         1 <1>         0.0000 
     24 H4        -10.7508   -2.2287   -0.2878 H         1 <1>         0.0000 
     25 C25        -7.8175    0.1609   -3.4652 C.3       1 <1>        -0.3858 
     26 H5        -12.0167   -0.3027   -1.7634 H         1 <1>         0.0000 
     27 H6         -9.1595    2.0643   -0.8224 H         1 <1>         0.0000 
     28 C28        -7.8198   -0.2340   -1.0007 C.3       1 <1>         0.0000 
     29 H8         -9.9508    4.5294   -5.1854 H         1 <1>         0.0000 
     30 H9         -5.6936    1.1963   -2.0842 H         1 <1>         0.0000 
     31 H10        -6.5682    2.1982   -0.8965 H         1 <1>         0.0000 
     32 H11        -6.6170    2.6146   -2.6301 H         1 <1>         0.0000 
     33 H12        -8.4484    2.8560   -4.4801 H         1 <1>         0.0000 
     34 H13       -12.9237    0.8732   -5.9967 H         1 <1>         0.0000 
     35 H14        -7.5971    0.8305   -4.3013 H         1 <1>         0.0000 
     36 H7         -8.7603   -0.3643   -3.6775 H         1 <1>         0.0000 
     37 H15        -7.0124   -0.5896   -3.4640 H         1 <1>         0.0000 
     38 H16        -8.5796   -0.9979   -1.2140 H         1 <1>         0.0000 
     39 H17        -7.9749    0.1621    0.0146 H         1 <1>         0.0000 
     40 H18        -6.8436   -0.7415   -1.0087 H         1 <1>         0.0000 
@<TRIPOS>BOND
     1    1    2 ar   
     2    3    2 ar   
     3    4    3 ar   
     4    5    4 ar   
     5    5    6 ar   
     6    6    1 ar   
     7    2    7 1    
     8    8    5 1    
     9    9    8 2    
    10   10    9 1    
    11   10   11 1    
    12   16   12 1    
    13   11   13 1    
    14    1   14 1    
    15   15   10 1    
    16   15   16 1    
    17    3   17 1    
    18   16   18 1    
    19   18   19 1    
    20    9   19 1    
    21   19   20 1    
    22   20   21 2    
    23   21   22 1    
    24   18   22 2    
    25    4   23 1    
    26    6   24 1    
    27   11   25 1    
    28    8   26 1    
    29   10   27 1    
    30   11   28 1    
    31   12   29 1    
    32   13   30 1    
    33   13   31 1    
    34   13   32 1    
    35   16   33 1    
    36   21   34 1    
    37   25   35 1    
    38   25   36 1    
    39   25   37 1    
    40   28   38 1    
    41   28   39 1    
    42   28   40 1    
@<TRIPOS>SUBSTRUCTURE
     1 ****        2 TEMP              0 ****  ****    0 ROOT 
@<TRIPOS>NORMAL
@<TRIPOS>FF_PBC
FORCE_FIELD_SETUP_FEATURE Force Field Setup information
v1.0  0 0.000000 0.000000 0.000000 0.000000 0.000000 0.000000 NONE 0 0 0 0 0 0 0 0 0 0 0 0 0
