#	Name:			PISM00937
#	Creating user name:	baoopengkun
#	Creation time:		Wed Dec 12 22:41:34 2018

#	Modifying user name:	baoopengkun
#	Modification time:	Wed Dec 12 23:04:03 2018

@<TRIPOS>MOLECULE
PISM00937
   21    21     1     1     0
SMALL
GAST_HUCK


@<TRIPOS>ATOM
      1 C1          4.0308   -5.9143    3.8415 C.3       1 <1>        -0.0422 
      2 C2          3.2751   -6.2781    5.0908 C.2       1 <1>         0.0177 
      3 C3          3.5058   -7.2666    5.9533 C.2       1 <1>        -0.0046 
      4 C4          2.5019   -7.2689    7.0808 C.3       1 <1>         0.1823 
      5 O5          1.6249   -6.1640    6.7790 O.3       1 <1>        -0.2525 
      6 C6          2.0976   -5.6265    5.6580 C.2       1 <1>         0.2302 
      7 C7          4.5958   -8.3072    5.9158 C.3       1 <1>        -0.0242 
      8 H1          4.0015   -6.7530    3.1301 H         1 <1>         0.0303 
      9 O9          1.5733   -4.6546    5.1417 O.2       1 <1>        -0.3822 
     10 C10         3.1758   -7.0339    8.3518 C.1       1 <1>        -0.0492 
     11 C11         3.7358   -6.8411    9.3996 C.1       1 <1>        -0.0998 
     12 C12         4.4142   -6.6069   10.6679 C.3       1 <1>        -0.0023 
     13 H2          5.0774   -5.6861    4.0921 H         1 <1>         0.0303 
     14 H3          3.5787   -5.0303    3.3674 H         1 <1>         0.0303 
     15 H4          1.9323   -8.2100    7.1198 H         1 <1>         0.0990 
     16 H5          4.1475   -9.3118    5.9003 H         1 <1>         0.0429 
     17 H6          5.2309   -8.2131    6.8093 H         1 <1>         0.0429 
     18 H7          5.2287   -8.1921    5.0236 H         1 <1>         0.0429 
     19 H8          4.6511   -5.5370   10.7636 H         1 <1>         0.0362 
     20 H9          5.3444   -7.1932   10.6998 H         1 <1>         0.0362 
     21 H10         3.7583   -6.9131   11.4961 H         1 <1>         0.0362 
@<TRIPOS>BOND
     1    2    1 1    
     2    2    3 2    
     3    3    4 1    
     4    4    5 1    
     5    5    6 1    
     6    2    6 1    
     7    3    7 1    
     8    1    8 1    
     9    6    9 2    
    10    4   10 1    
    11   10   11 3    
    12   11   12 1    
    13    1   13 1    
    14    1   14 1    
    15    4   15 1    
    16    7   16 1    
    17    7   17 1    
    18    7   18 1    
    19   12   19 1    
    20   12   20 1    
    21   12   21 1    
@<TRIPOS>SUBSTRUCTURE
     1 ****        2 TEMP              0 ****  ****    0 ROOT 
@<TRIPOS>NORMAL
@<TRIPOS>FF_PBC
FORCE_FIELD_SETUP_FEATURE Force Field Setup information
v1.0  0 0.000000 0.000000 0.000000 0.000000 0.000000 0.000000 NONE 0 0 0 0 1 0 0 0 0 0 0 0 0
