#	Name:			PISM00809.1
#	Creating user name:	baoopengkun
#	Creation time:		Fri Nov 30 17:03:28 2018

#	Modifying user name:	baoopengkun
#	Modification time:	Fri Nov 30 17:05:20 2018

@<TRIPOS>MOLECULE
PISM00809.1
   38    39     1     2     0
SMALL
GAST_HUCK


@<TRIPOS>ATOM
      1 C1          0.0686   -2.5836    6.0337 C.ar      1 <1>        -0.0752 
      2 C2          1.1718   -1.7772    6.3279 C.ar      1 <1>        -0.0455 
      3 C3          2.3783   -1.9414    5.6369 C.ar      1 <1>         0.0948 
      4 C4          2.4650   -2.9373    4.6568 C.ar      1 <1>        -0.0455 
      5 C5          1.3693   -3.7589    4.3764 C.ar      1 <1>        -0.0752 
      6 C6          0.1579   -3.5740    5.0509 C.ar      1 <1>        -0.0411 
      7 N7          3.4456   -1.1493    5.9132 N.pl3     1 <1>        -0.0629 
      8 O8          3.3572   -0.1242    6.8635 O.3       1 <1>        -0.2506 
      9 O9          4.6683   -1.3297    5.2541 O.3       1 <1>        -0.2506 
     10 C10        -1.0576   -4.4253    4.7475 C.2       1 <1>         0.0733 
     11 C11        -1.9046   -4.9526    5.8414 C.2       1 <1>         0.2378 
     12 O12        -1.4166   -5.6047    6.9126 O.3       1 <1>        -0.2865 
     13 C13        -0.0001   -5.8683    6.9337 C.3       1 <1>         0.0638 
     14 O14        -3.1127   -4.8150    5.7498 O.2       1 <1>        -0.3769 
     15 C15        -1.4085   -4.6952    3.4831 C.2       1 <1>         0.0985 
     16 O16        -0.6860   -4.2006    2.4663 O.3       1 <1>        -0.2549 
     17 C17        -1.1428   -4.5929    1.1594 C.3       1 <1>         0.2441 
     18 C18        -0.9185   -6.0717    0.9328 C.2       1 <1>         0.0001 
     19 C19        -0.0010   -6.2673   -0.0122 C.2       1 <1>         0.0293 
     20 C20         0.3591   -4.9155   -0.4220 C.2       1 <1>         0.2496 
     21 O21        -0.2859   -3.9387    0.2027 O.3       1 <1>        -0.2295 
     22 C22         0.5273   -7.5707   -0.5461 C.3       1 <1>        -0.0323 
     23 O23         1.1899   -4.6919   -1.2852 O.2       1 <1>        -0.3691 
     24 H1         -0.8627   -2.4366    6.5724 H         1 <1>         0.0528 
     25 H2          1.0796   -1.0209    7.1002 H         1 <1>         0.0497 
     26 H3          3.3866   -3.0834    4.1034 H         1 <1>         0.0497 
     27 H4          1.4718   -4.5459    3.6363 H         1 <1>         0.0528 
     28 H5          3.4151    0.7186    6.4274 H         1 <1>         0.2516 
     29 H6          5.3302   -1.6008    5.8803 H         1 <1>         0.2516 
     30 H7          0.1749   -6.5589    7.7717 H         1 <1>         0.0574 
     31 H8          0.5923   -4.9648    7.1329 H         1 <1>         0.0574 
     32 H9          0.3500   -6.3593    6.0119 H         1 <1>         0.0574 
     33 H10        -2.2969   -5.3135    3.3292 H         1 <1>         0.1266 
     34 H11        -2.1857   -4.2893    0.9652 H         1 <1>         0.1223 
     35 H12        -1.4270   -6.8736    1.4662 H         1 <1>         0.0707 
     36 H13        -0.2852   -8.3086   -0.6251 H         1 <1>         0.0347 
     37 H14         1.3013   -7.9572    0.1333 H         1 <1>         0.0347 
     38 H15         0.9686   -7.4198   -1.5428 H         1 <1>         0.0347 
@<TRIPOS>BOND
     1    2    1 ar   
     2    2    3 ar   
     3    3    4 ar   
     4    4    5 ar   
     5    5    6 ar   
     6    1    6 ar   
     7    3    7 1    
     8    7    8 1    
     9    7    9 1    
    10    6   10 1    
    11   10   11 1    
    12   11   12 1    
    13   12   13 1    
    14   11   14 2    
    15   10   15 2    
    16   15   16 1    
    17   16   17 1    
    18   17   18 1    
    19   18   19 2    
    20   19   20 1    
    21   20   21 1    
    22   17   21 1    
    23   19   22 1    
    24   20   23 2    
    25    1   24 1    
    26    2   25 1    
    27    4   26 1    
    28    5   27 1    
    29    8   28 1    
    30    9   29 1    
    31   13   30 1    
    32   13   31 1    
    33   13   32 1    
    34   15   33 1    
    35   17   34 1    
    36   18   35 1    
    37   22   36 1    
    38   22   37 1    
    39   22   38 1    
@<TRIPOS>SUBSTRUCTURE
     1 ****        2 TEMP              0 ****  ****    0 ROOT 
@<TRIPOS>NORMAL
@<TRIPOS>FF_PBC
FORCE_FIELD_SETUP_FEATURE Force Field Setup information
v1.0  0 0.000000 0.000000 0.000000 0.000000 0.000000 0.000000 NONE 0 0 0 0 1 0 0 0 0 0 0 0 0
@<TRIPOS>RENDERING_ATTRS
ANTIALIASED_LINES 
*
