#	Name:			PISM00819.1
#	Creating user name:	baoopengkun
#	Creation time:		Fri Nov 30 17:33:02 2018

#	Modifying user name:	baoopengkun
#	Modification time:	Fri Nov 30 17:40:42 2018

@<TRIPOS>MOLECULE
PISM00819.1
   40    42     1     2     0
SMALL
GAST_HUCK


@<TRIPOS>ATOM
      1 C1          3.2312    9.1748    1.3612 C.ar      1 <1>        -0.0175 
      2 C2          2.1673    9.9507    1.8452 C.ar      1 <1>        -0.0259 
      3 C3          0.8481    9.6072    1.5271 C.ar      1 <1>        -0.0640 
      4 C4          0.5845    8.4984    0.7206 C.ar      1 <1>        -0.0722 
      5 C5          1.6440    7.7544    0.1986 C.ar      1 <1>        -0.0660 
      6 C6          2.9661    8.1068    0.4903 C.ar      1 <1>        -0.0184 
      7 C7          2.4217   11.0688    2.6492 C.ar      1 <1>        -0.0575 
      8 C8          3.7315   11.4040    2.9995 C.ar      1 <1>        -0.0635 
      9 C9          4.7897   10.6054    2.5622 C.ar      1 <1>        -0.0631 
     10 C10         4.5371    9.4863    1.7643 C.ar      1 <1>        -0.0561 
     11 C11         4.0813    7.3171   -0.1631 C.2       1 <1>         0.0876 
     12 C12         5.1481    7.9637   -0.9663 C.2       1 <1>         0.2418 
     13 O13         4.9393    8.9795   -1.8252 O.3       1 <1>        -0.2861 
     14 C14         3.5851    9.4251   -2.0256 C.3       1 <1>         0.0639 
     15 O15         6.2840    7.5325   -0.8630 O.2       1 <1>        -0.3759 
     16 C16         4.1183    5.9884    0.0040 C.2       1 <1>         0.1096 
     17 O17         3.1743    5.3840    0.7423 O.3       1 <1>        -0.2470 
     18 C18         3.3261    3.9571    0.8194 C.3       1 <1>         0.2466 
     19 C19         2.3091    3.4359    1.8045 C.2       1 <1>         0.0006 
     20 C20         2.9151    2.8813    2.8525 C.2       1 <1>         0.0294 
     21 C21         4.3329    3.0284    2.5436 C.2       1 <1>         0.2497 
     22 O22         4.6079    3.6230    1.3893 O.3       1 <1>        -0.2291 
     23 C23         2.2900    2.2402    4.0613 C.3       1 <1>        -0.0323 
     24 O24         5.2117    2.6294    3.2878 O.2       1 <1>        -0.3691 
     25 H1          0.0170   10.1955    1.9040 H         1 <1>         0.0535 
     26 H2         -0.4406    8.2180    0.4976 H         1 <1>         0.0590 
     27 H3          1.4317    6.9051   -0.4432 H         1 <1>         0.0523 
     28 H4          1.6051   11.6870    3.0094 H         1 <1>         0.0605 
     29 H5          3.9263   12.2800    3.6110 H         1 <1>         0.0613 
     30 H6          5.8086   10.8541    2.8439 H         1 <1>         0.0598 
     31 H7          5.3784    8.8674    1.4737 H         1 <1>         0.0623 
     32 H8          3.6107   10.1113   -2.8847 H         1 <1>         0.0574 
     33 H9          3.2045    9.9994   -1.1697 H         1 <1>         0.0574 
     34 H10         2.9014    8.5988   -2.2760 H         1 <1>         0.0574 
     35 H11         4.9329    5.4330   -0.4700 H         1 <1>         0.1357 
     36 H12         3.1964    3.4690   -0.1616 H         1 <1>         0.1229 
     37 H13         1.2303    3.5111    1.6739 H         1 <1>         0.0707 
     38 H14         1.3853    1.6836    3.7739 H         1 <1>         0.0347 
     39 H15         2.0187    3.0192    4.7890 H         1 <1>         0.0347 
     40 H16         3.0018    1.5443    4.5302 H         1 <1>         0.0347 
@<TRIPOS>BOND
     1    2    1 ar   
     2    2    3 ar   
     3    3    4 ar   
     4    4    5 ar   
     5    5    6 ar   
     6    1    6 ar   
     7    2    7 ar   
     8    7    8 ar   
     9    8    9 ar   
    10    9   10 ar   
    11    1   10 ar   
    12    6   11 1    
    13   11   12 1    
    14   12   13 1    
    15   13   14 1    
    16   12   15 2    
    17   11   16 2    
    18   16   17 1    
    19   17   18 1    
    20   18   19 1    
    21   19   20 2    
    22   20   21 1    
    23   21   22 1    
    24   18   22 1    
    25   20   23 1    
    26   21   24 2    
    27    3   25 1    
    28    4   26 1    
    29    5   27 1    
    30    7   28 1    
    31    8   29 1    
    32    9   30 1    
    33   10   31 1    
    34   14   32 1    
    35   14   33 1    
    36   14   34 1    
    37   16   35 1    
    38   18   36 1    
    39   19   37 1    
    40   23   38 1    
    41   23   39 1    
    42   23   40 1    
@<TRIPOS>SUBSTRUCTURE
     1 ****        2 TEMP              0 ****  ****    0 ROOT 
@<TRIPOS>NORMAL
@<TRIPOS>FF_PBC
FORCE_FIELD_SETUP_FEATURE Force Field Setup information
v1.0  0 0.000000 0.000000 0.000000 0.000000 0.000000 0.000000 NONE 0 0 0 0 1 0 0 0 0 0 0 0 0
@<TRIPOS>RENDERING_ATTRS
ANTIALIASED_LINES 
*
