#	Name:			PISM00713
#	Creating user name:	baoopengkun
#	Creation time:		Fri Jan 25 00:09:57 2019

#	Modifying user name:	baoopengkun
#	Modification time:	Fri Jan 25 00:12:01 2019

@<TRIPOS>MOLECULE
PISM00713
   83    86     1     1     0
SMALL
GAST_HUCK


@<TRIPOS>ATOM
      1 C1          6.9683   -0.6781    4.2089 C.3       1 <1>        -0.0163 
      2 C2          6.9887   -1.6252    5.4418 C.3       1 <1>         0.0819 
      3 C3          8.3360   -1.5133    6.2139 C.3       1 <1>         0.0835 
      4 C4          8.6700   -0.0352    6.5480 C.3       1 <1>        -0.0093 
      5 C5          8.6200    0.8907    5.2940 C.3       1 <1>         0.0018 
      6 C6          7.2620    0.8247    4.5299 C.3       1 <1>        -0.0118 
      7 C7          7.2970    1.6970    3.2083 C.3       1 <1>        -0.0279 
      8 C8          7.8693    3.1455    3.4199 C.3       1 <1>        -0.0224 
      9 C9          9.1362    3.1700    4.3231 C.3       1 <1>        -0.0144 
     10 C10         8.9323    2.3477    5.5685 C.2       1 <1>        -0.0696 
     11 C11         9.0298    2.9026    6.7848 C.2       1 <1>        -0.1287 
     12 C12         8.2491    3.8289    2.0653 C.3       1 <1>        -0.0301 
     13 C13         7.2887    3.5138    0.8936 C.3       1 <1>        -0.0256 
     14 C14         7.4212    1.9658    0.6514 C.3       1 <1>        -0.0468 
     15 C15         7.9075    1.1299    1.8920 C.3       1 <1>        -0.0486 
     16 C16         7.8971    4.4449   -0.2198 C.3       1 <1>        -0.0304 
     17 C17         8.2699    5.7433    0.5731 C.3       1 <1>        -0.0491 
     18 C18         8.3662    5.3674    2.0795 C.3       1 <1>        -0.0490 
     19 O19         9.4433   -2.1753    5.5714 O.3       1 <1>        -0.3890 
     20 O20         6.8128   -2.9931    5.0235 O.3       1 <1>        -0.3892 
     21 H21         9.4067    0.5276    4.6134 H         1 <1>         0.0501 
     22 C22         6.1104    1.3942    5.4344 C.3       1 <1>        -0.0568 
     23 C23         5.8187    3.9711    1.2008 C.3       1 <1>        -0.0590 
     24 C24         7.0355    4.7198   -1.5057 C.3       1 <1>        -0.0120 
     25 C25         7.6897    5.7808   -2.4648 C.3       1 <1>         0.0841 
     26 C26         6.6780    6.4829   -3.4355 C.3       1 <1>         0.0841 
     27 C27         7.2095    7.8402   -4.0282 C.3       1 <1>        -0.0130 
     28 C28         6.0556    8.8893   -4.2183 C.3       1 <1>        -0.0417 
     29 C29         6.4455   10.0679   -5.1579 C.3       1 <1>        -0.0623 
     30 C30         5.6061    9.5048   -2.8545 C.3       1 <1>        -0.0623 
     31 C31         8.0204    7.5776   -5.3325 C.3       1 <1>        -0.0597 
     32 O32         6.3187    5.5718   -4.4921 O.3       1 <1>        -0.3890 
     33 O33         8.8166    5.2407   -3.1715 O.3       1 <1>        -0.3890 
     34 C34         6.7041    3.3957   -2.2532 C.3       1 <1>        -0.0597 
     35 H1          5.9985   -0.7619    3.6938 H         1 <1>         0.0298 
     36 H2          7.7394   -1.0902    3.5476 H         1 <1>         0.0298 
     37 H3          6.1613   -1.3820    6.1290 H         1 <1>         0.0619 
     38 H4          8.2236   -2.0702    7.1601 H         1 <1>         0.0621 
     39 H5          9.6791    0.0020    6.9909 H         1 <1>         0.0320 
     40 H6          7.9624    0.2957    7.3196 H         1 <1>         0.0320 
     41 H7          6.2395    1.7327    2.9218 H         1 <1>         0.0313 
     42 H8          7.0967    3.7519    3.9174 H         1 <1>         0.0333 
     43 H9          9.3959    4.2144    4.5579 H         1 <1>         0.0463 
     44 H10        10.0037    2.7302    3.8082 H         1 <1>         0.0463 
     45 H11         9.2538    3.9630    6.9010 H         1 <1>         0.0075 
     46 H12         8.8986    2.3643    7.7201 H         1 <1>         0.0075 
     47 H13         9.2457    3.4700    1.7488 H         1 <1>         0.0311 
     48 H14         8.1226    1.7574   -0.1717 H         1 <1>         0.0271 
     49 H15         6.4383    1.5732    0.3474 H         1 <1>         0.0271 
     50 H16         9.0044    1.1212    1.9843 H         1 <1>         0.0268 
     51 H17         7.5981    0.0965    1.6774 H         1 <1>         0.0268 
     52 H18         8.8433    3.9990   -0.5736 H         1 <1>         0.0310 
     53 H19         7.5065    6.5304    0.4545 H         1 <1>         0.0268 
     54 H20         9.2355    6.1508    0.2251 H         1 <1>         0.0268 
     55 H22         7.5322    5.8047    2.6524 H         1 <1>         0.0268 
     56 H23         9.3086    5.7115    2.5387 H         1 <1>         0.0268 
     57 H24         9.6594   -1.8454    4.7085 H         1 <1>         0.2099 
     58 H25         5.9905   -3.1499    4.5701 H         1 <1>         0.2099 
     59 H26         6.2813    2.4501    5.6851 H         1 <1>         0.0237 
     60 H27         5.9818    0.8726    6.3880 H         1 <1>         0.0237 
     61 H28         5.1406    1.3245    4.9185 H         1 <1>         0.0237 
     62 H29         5.7213    5.0645    1.2228 H         1 <1>         0.0235 
     63 H30         5.1326    3.6013    0.4266 H         1 <1>         0.0235 
     64 H31         5.4230    3.6264    2.1600 H         1 <1>         0.0235 
     65 H32         6.0844    5.1541   -1.1667 H         1 <1>         0.0327 
     66 H33         8.1045    6.5817   -1.8407 H         1 <1>         0.0622 
     67 H34         5.7684    6.6764   -2.8486 H         1 <1>         0.0622 
     68 H35         7.9192    8.3089   -3.3268 H         1 <1>         0.0326 
     69 H36         5.1882    8.3836   -4.6761 H         1 <1>         0.0299 
     70 H37         5.6416   10.8198   -5.1927 H         1 <1>         0.0232 
     71 H38         6.6062    9.7247   -6.1906 H         1 <1>         0.0232 
     72 H39         7.3617   10.5587   -4.7955 H         1 <1>         0.0232 
     73 H40         5.2821    8.7570   -2.1192 H         1 <1>         0.0232 
     74 H41         4.7602   10.1933   -3.0043 H         1 <1>         0.0232 
     75 H42         6.4329   10.0768   -2.4064 H         1 <1>         0.0232 
     76 H43         7.3539    7.2943   -6.1607 H         1 <1>         0.0233 
     77 H44         8.7475    6.7675   -5.1835 H         1 <1>         0.0233 
     78 H45         8.5947    8.4661   -5.6364 H         1 <1>         0.0233 
     79 H46         5.6268    5.8982   -5.0590 H         1 <1>         0.2099 
     80 H47         8.5429    4.6275   -3.8461 H         1 <1>         0.2099 
     81 H48         7.6244    2.8423   -2.4924 H         1 <1>         0.0233 
     82 H49         6.1589    3.5811   -3.1872 H         1 <1>         0.0233 
     83 H50         6.0620    2.7454   -1.6487 H         1 <1>         0.0233 
@<TRIPOS>BOND
     1    2    1 1    
     2    2    3 1    
     3    3    4 1    
     4    4    5 1    
     5    5    6 1    
     6    1    6 1    
     7    6    7 1    
     8    7    8 1    
     9    8    9 1    
    10    9   10 1    
    11    5   10 1    
    12   10   11 2    
    13    8   12 1    
    14   12   13 1    
    15   13   14 1    
    16   14   15 1    
    17    7   15 1    
    18   13   16 1    
    19   16   17 1    
    20   17   18 1    
    21   12   18 1    
    22    3   19 1    
    23    2   20 1    
    24    5   21 1    
    25    6   22 1    
    26   13   23 1    
    27   16   24 1    
    28   24   25 1    
    29   25   26 1    
    30   26   27 1    
    31   27   28 1    
    32   28   29 1    
    33   28   30 1    
    34   27   31 1    
    35   26   32 1    
    36   25   33 1    
    37   24   34 1    
    38    1   35 1    
    39    1   36 1    
    40    2   37 1    
    41    3   38 1    
    42    4   39 1    
    43    4   40 1    
    44    7   41 1    
    45    8   42 1    
    46    9   43 1    
    47    9   44 1    
    48   11   45 1    
    49   11   46 1    
    50   12   47 1    
    51   14   48 1    
    52   14   49 1    
    53   15   50 1    
    54   15   51 1    
    55   16   52 1    
    56   17   53 1    
    57   17   54 1    
    58   18   55 1    
    59   18   56 1    
    60   19   57 1    
    61   20   58 1    
    62   22   59 1    
    63   22   60 1    
    64   22   61 1    
    65   23   62 1    
    66   23   63 1    
    67   23   64 1    
    68   24   65 1    
    69   25   66 1    
    70   26   67 1    
    71   27   68 1    
    72   28   69 1    
    73   29   70 1    
    74   29   71 1    
    75   29   72 1    
    76   30   73 1    
    77   30   74 1    
    78   30   75 1    
    79   31   76 1    
    80   31   77 1    
    81   31   78 1    
    82   32   79 1    
    83   33   80 1    
    84   34   81 1    
    85   34   82 1    
    86   34   83 1    
@<TRIPOS>SUBSTRUCTURE
     1 ****        2 TEMP              0 ****  ****    0 ROOT 
@<TRIPOS>NORMAL
@<TRIPOS>FF_PBC
FORCE_FIELD_SETUP_FEATURE Force Field Setup information
v1.0  0 0.000000 0.000000 0.000000 0.000000 0.000000 0.000000 NONE 0 0 0 0 1 0 0 0 0 0 0 0 0
