#	Name:			PISM00437
#	Creating user name:	baoopengkun
#	Creation time:		Sun Mar 31 18:30:50 2019

#	Modifying user name:	baoopengkun
#	Modification time:	Sun Mar 31 18:40:11 2019

@<TRIPOS>MOLECULE
PISM00437
   42    43     1     1     0
SMALL
GAST_HUCK


@<TRIPOS>ATOM
      1 C1         -2.2189   -0.5206  -14.1806 C.3       1 <1>        -0.0358 
      2 C2         -2.5031    0.4082  -12.9676 C.3       1 <1>         0.0159 
      3 C3         -3.9769    0.4071  -12.6812 C.2       1 <1>         0.1066 
      4 C4         -4.6078   -0.9087  -12.3370 C.3       1 <1>         0.0270 
      5 C5         -3.9302   -2.1729  -12.9133 C.3       1 <1>        -0.0279 
      6 C6         -2.6696   -1.9987  -13.8308 C.3       1 <1>         0.0315 
      7 C7         -0.6866   -0.4664  -14.4987 C.3       1 <1>        -0.0684 
      8 C8         -2.9282    0.0985  -15.4340 C.3       1 <1>        -0.0684 
      9 C9         -1.5795   -2.7164  -13.0540 C.2       1 <1>        -0.0713 
     10 C10        -1.0867   -3.9269  -13.3542 C.2       1 <1>        -0.0019 
     11 C11        -0.0184   -4.5766  -12.5593 C.2       1 <1>         0.0411 
     12 C12         0.0002   -5.8983  -12.3219 C.2       1 <1>         0.0801 
     13 C13        -0.9947   -6.9038  -12.7409 C.2       1 <1>         0.2880 
     14 O14        -2.0620   -6.5635  -13.2240 O.2       1 <1>        -0.3368 
     15 O15        -0.7229   -8.1998  -12.5776 O.3       1 <1>        -0.2892 
     16 O16        -2.9864   -2.7287  -15.0286 O.3       1 <1>        -0.4537 
     17 C17         1.0962   -3.7114  -12.0098 C.3       1 <1>        -0.0093 
     18 C18        -4.0580   -3.4733  -12.0652 C.3       1 <1>        -0.0678 
     19 C19        -5.2935   -1.7058  -13.4736 C.3       1 <1>        -0.0378 
     20 O20        -4.6407    1.4306  -12.7177 O.2       1 <1>        -0.3914 
     21 H1         -2.1770    1.4384  -13.1812 H         1 <1>         0.0487 
     22 H2         -1.9751    0.0707  -12.0644 H         1 <1>         0.0487 
     23 H3         -5.0497   -1.0223  -11.3358 H         1 <1>         0.0522 
     24 H4         -0.0627   -0.7262  -13.6329 H         1 <1>         0.0224 
     25 H5         -0.3771    0.5452  -14.8034 H         1 <1>         0.0224 
     26 H6         -0.4400   -1.1548  -15.3207 H         1 <1>         0.0224 
     27 H7         -2.5060    1.0882  -15.6659 H         1 <1>         0.0224 
     28 H8         -3.9999    0.2680  -15.2946 H         1 <1>         0.0224 
     29 H9         -2.7939   -0.5257  -16.3284 H         1 <1>         0.0224 
     30 H10        -1.1936   -2.2155  -12.1676 H         1 <1>         0.0563 
     31 H11        -1.4810   -4.4675  -14.2127 H         1 <1>         0.1247 
     32 H12         0.8236   -6.3249  -11.7500 H         1 <1>         0.1129 
     33 H13        -1.4340   -8.7549  -12.8802 H         1 <1>         0.2521 
     34 H14        -2.2783   -2.7500  -15.6631 H         1 <1>         0.1855 
     35 H15         2.0595   -4.2443  -11.9962 H         1 <1>         0.0431 
     36 H16         0.8479   -3.4058  -10.9822 H         1 <1>         0.0431 
     37 H17         1.2300   -2.8091  -12.6257 H         1 <1>         0.0431 
     38 H18        -3.9249   -4.3426  -12.7267 H         1 <1>         0.0224 
     39 H19        -5.0346   -3.5665  -11.5667 H         1 <1>         0.0224 
     40 H20        -3.2881   -3.4967  -11.2801 H         1 <1>         0.0224 
     41 H21        -5.2947   -1.3370  -14.5031 H         1 <1>         0.0287 
     42 H22        -6.1948   -2.2667  -13.1827 H         1 <1>         0.0287 
@<TRIPOS>BOND
     1    2    1 1    
     2    2    3 1    
     3    3    4 1    
     4    4    5 1    
     5    5    6 1    
     6    1    6 1    
     7    1    7 1    
     8    1    8 1    
     9    6    9 1    
    10    9   10 2    
    11   10   11 1    
    12   11   12 2    
    13   12   13 1    
    14   13   14 2    
    15   13   15 1    
    16    6   16 1    
    17   11   17 1    
    18    5   18 1    
    19    4   19 1    
    20    5   19 1    
    21    3   20 2    
    22    2   21 1    
    23    2   22 1    
    24    4   23 1    
    25    7   24 1    
    26    7   25 1    
    27    7   26 1    
    28    8   27 1    
    29    8   28 1    
    30    8   29 1    
    31    9   30 1    
    32   10   31 1    
    33   12   32 1    
    34   15   33 1    
    35   16   34 1    
    36   17   35 1    
    37   17   36 1    
    38   17   37 1    
    39   18   38 1    
    40   18   39 1    
    41   18   40 1    
    42   19   41 1    
    43   19   42 1    
@<TRIPOS>SUBSTRUCTURE
     1 ****        2 TEMP              0 ****  ****    0 ROOT 
@<TRIPOS>NORMAL
@<TRIPOS>FF_PBC
FORCE_FIELD_SETUP_FEATURE Force Field Setup information
v1.0  0 0.000000 0.000000 0.000000 0.000000 0.000000 0.000000 NONE 0 0 0 0 1 0 0 0 0 0 0 0 0
