#	Name:			PISM00493
#	Creating user name:	baoopengkun
#	Creation time:		Wed Feb 27 21:15:59 2019

#	Modifying user name:	baoopengkun
#	Modification time:	Wed Feb 27 21:16:34 2019

@<TRIPOS>MOLECULE
PISM00493
   16    16     1     1     0
SMALL
GAST_HUCK


@<TRIPOS>ATOM
      1 C1         19.8240    3.6039  -10.9633 C.3       1 <1>        -0.0631 
      2 C2         21.3530    3.7666  -10.7618 C.3       1 <1>        -0.0447 
      3 C3         21.6704    4.8885   -9.7398 C.3       1 <1>        -0.0206 
      4 C4         23.1557    5.0239   -9.5601 C.2       1 <1>        -0.0705 
      5 C5         24.0578    5.9044   -8.7544 C.3       1 <1>        -0.0205 
      6 C6         24.4246    4.7603   -9.7380 C.2       1 <1>        -0.0948 
      7 H1         19.6203    2.8139  -11.7032 H         1 <1>         0.0232 
      8 H2         19.3823    4.5450  -11.3261 H         1 <1>         0.0232 
      9 H3         19.3395    3.3279  -10.0137 H         1 <1>         0.0232 
     10 H4         21.8247    4.0127  -11.7279 H         1 <1>         0.0289 
     11 H5         21.7774    2.8136  -10.4032 H         1 <1>         0.0289 
     12 H6         21.2189    4.6551   -8.7628 H         1 <1>         0.0452 
     13 H7         21.2719    5.8522  -10.0930 H         1 <1>         0.0452 
     14 H8         24.1269    5.7033   -7.6751 H         1 <1>         0.0331 
     15 H9         24.1852    6.9422   -9.0960 H         1 <1>         0.0331 
     16 H10        25.1924    4.1627  -10.2272 H         1 <1>         0.0304 
@<TRIPOS>BOND
     1    2    1 1    
     2    2    3 1    
     3    3    4 1    
     4    4    5 1    
     5    5    6 1    
     6    4    6 2    
     7    1    7 1    
     8    1    8 1    
     9    1    9 1    
    10    2   10 1    
    11    2   11 1    
    12    3   12 1    
    13    3   13 1    
    14    5   14 1    
    15    5   15 1    
    16    6   16 1    
@<TRIPOS>SUBSTRUCTURE
     1 ****        2 TEMP              0 ****  ****    0 ROOT 
@<TRIPOS>NORMAL
@<TRIPOS>FF_PBC
FORCE_FIELD_SETUP_FEATURE Force Field Setup information
v1.0  0 0.000000 0.000000 0.000000 0.000000 0.000000 0.000000 NONE 0 0 0 0 1 0 0 0 0 0 0 0 0
