#	Name:			PISM00666
#	Creating user name:	baoopengkun
#	Creation time:		Sun Jan 20 22:58:24 2019

#	Modifying user name:	baoopengkun
#	Modification time:	Sun Jan 20 22:59:13 2019

@<TRIPOS>MOLECULE
PISM00666
   48    51     1     2     0
SMALL
GAST_HUCK


@<TRIPOS>ATOM
      1 C1        -14.4214   12.8538   -1.7056 C.ar      1 <1>        -0.0360 
      2 C2        -14.8296   11.6867   -2.3585 C.ar      1 <1>         0.0035 
      3 C3        -13.9742   11.0564   -3.2656 C.ar      1 <1>         0.1668 
      4 C4        -12.7044   11.5845   -3.5093 C.ar      1 <1>         0.0035 
      5 C5        -12.2914   12.7425   -2.8446 C.ar      1 <1>        -0.0360 
      6 C6        -13.1554   13.3937   -1.9566 C.ar      1 <1>         0.0022 
      7 C7        -12.7203   14.6973   -1.2728 C.3       1 <1>         0.1883 
      8 C8        -12.0300   14.3828    0.0753 C.3       1 <1>         0.1054 
      9 N9        -11.7247   15.5948    0.8202 N.pl3     1 <1>        -0.1819 
     10 N10       -10.4918   16.1315    1.0406 N.2       1 <1>        -0.1908 
     11 C11       -10.5282   17.1962    1.7527 C.2       1 <1>         0.0618 
     12 N12       -11.9399   17.3115    1.9957 N.2       1 <1>        -0.2870 
     13 C13       -12.5586   16.3704    1.4420 C.2       1 <1>         0.1269 
     14 O14       -13.8460   15.5842   -1.1120 O.3       1 <1>        -0.3839 
     15 C15       -13.5049   16.8358   -1.7285 C.3       1 <1>         0.0665 
     16 C16       -12.6185   16.3472   -2.8892 C.3       1 <1>         0.0993 
     17 O17       -11.8326   15.4120   -2.1439 O.3       1 <1>        -0.3783 
     18 C18       -13.4594   15.6874   -4.0179 C.3       1 <1>         0.0951 
     19 O19       -12.6145   14.8044   -4.7777 O.3       1 <1>        -0.3192 
     20 C20       -13.1473   14.1535   -5.8946 C.ar      1 <1>         0.1202 
     21 C21       -14.3221   13.3978   -5.8041 C.ar      1 <1>        -0.0415 
     22 C22       -14.8455   12.7760   -6.9416 C.ar      1 <1>        -0.0819 
     23 C23       -14.1917   12.8968   -8.1709 C.ar      1 <1>        -0.0819 
     24 C24       -13.0065   13.6320   -8.2585 C.ar      1 <1>        -0.0411 
     25 C25       -12.4809   14.2488   -7.1202 C.ar      1 <1>         0.1290 
     26 O26       -11.2866   14.9602   -7.2078 O.3       1 <1>        -0.2300 
     27 C27       -10.1555   14.1405   -6.8857 C.3       1 <1>         0.5442 
     28 F28       -10.0662   13.1129   -7.7735 F         1 <1>        -0.1403 
     29 F29        -9.0323   14.9011   -6.9726 F         1 <1>        -0.1403 
     30 F30       -10.2568   13.6354   -5.6260 F         1 <1>        -0.1403 
     31 F31       -14.3695    9.9547   -3.8978 F         1 <1>        -0.1556 
     32 H32       -15.0905   13.3425   -1.0041 H         1 <1>         0.0841 
     33 H2        -15.8112   11.2661   -2.1663 H         1 <1>         0.0693 
     34 H3        -12.0436   11.0937   -4.2163 H         1 <1>         0.0693 
     35 H4        -11.2965   13.1377   -3.0265 H         1 <1>         0.0841 
     36 H5        -11.0960   13.8345   -0.1182 H         1 <1>         0.0589 
     37 H6        -12.6924   13.7510    0.6861 H         1 <1>         0.0589 
     38 H7         -9.7114   17.8361    2.0829 H         1 <1>         0.0863 
     39 H8        -13.6389   16.2351    1.4829 H         1 <1>         0.1361 
     40 H9        -12.9034   17.4492   -1.0378 H         1 <1>         0.0575 
     41 H10       -14.3914   17.4043   -2.0474 H         1 <1>         0.0575 
     42 H11       -11.9633   17.1278   -3.3087 H         1 <1>         0.0634 
     43 H12       -13.8663   16.4736   -4.6735 H         1 <1>         0.0635 
     44 H13       -14.3054   15.1420   -3.5785 H         1 <1>         0.0635 
     45 H14       -14.8354   13.2793   -4.8581 H         1 <1>         0.0509 
     46 H15       -15.7615   12.1968   -6.8703 H         1 <1>         0.0495 
     47 H16       -14.6028   12.4197   -9.0556 H         1 <1>         0.0495 
     48 H17       -12.4904   13.7255   -9.2084 H         1 <1>         0.0509 
@<TRIPOS>BOND
     1    2    1 ar   
     2    2    3 ar   
     3    3    4 ar   
     4    4    5 ar   
     5    5    6 ar   
     6    1    6 ar   
     7    6    7 1    
     8    7    8 1    
     9    8    9 1    
    10    9   10 1    
    11   10   11 2    
    12   11   12 1    
    13   12   13 2    
    14    9   13 1    
    15    7   14 1    
    16   14   15 1    
    17   15   16 1    
    18   16   17 1    
    19    7   17 1    
    20   16   18 1    
    21   18   19 1    
    22   19   20 1    
    23   20   21 ar   
    24   21   22 ar   
    25   22   23 ar   
    26   23   24 ar   
    27   24   25 ar   
    28   20   25 ar   
    29   25   26 1    
    30   26   27 1    
    31   27   28 1    
    32   27   29 1    
    33   27   30 1    
    34    3   31 1    
    35    1   32 1    
    36    2   33 1    
    37    4   34 1    
    38    5   35 1    
    39    8   36 1    
    40    8   37 1    
    41   11   38 1    
    42   13   39 1    
    43   15   40 1    
    44   15   41 1    
    45   16   42 1    
    46   18   43 1    
    47   18   44 1    
    48   21   45 1    
    49   22   46 1    
    50   23   47 1    
    51   24   48 1    
@<TRIPOS>SUBSTRUCTURE
     1 ****        2 TEMP              0 ****  ****    0 ROOT 
@<TRIPOS>NORMAL
@<TRIPOS>FF_PBC
FORCE_FIELD_SETUP_FEATURE Force Field Setup information
v1.0  0 0.000000 0.000000 0.000000 0.000000 0.000000 0.000000 NONE 0 0 0 0 1 0 0 0 0 0 0 0 0
@<TRIPOS>RENDERING_ATTRS
ANTIALIASED_LINES 
*
