#	Name:			PISM00874
#	Creating user name:	baoopengkun
#	Creation time:		Thu Dec 13 23:15:37 2018

#	Modifying user name:	baoopengkun
#	Modification time:	Fri Dec 14 00:00:32 2018

@<TRIPOS>MOLECULE
PISM00874
   24    25     1     1     0
SMALL
GAST_HUCK


@<TRIPOS>ATOM
      1 H2          1.2468    0.7682    1.8231 H         1 <1>         0.0557 
      2 C2         -0.4901    1.9364    2.3470 C.ar      1 <1>        -0.0583 
      3 C3         -1.6133    2.6161    1.8667 C.ar      1 <1>         0.0041 
      4 C4         -1.8698    2.6572    0.4931 C.ar      1 <1>        -0.0514 
      5 C5         -1.0021    2.0233   -0.4010 C.ar      1 <1>         0.0438 
      6 C6          0.1271    1.3533    0.0793 C.ar      1 <1>         0.1113 
      7 C7          0.3778    1.3020    1.4533 C.ar      1 <1>        -0.0270 
      8 Br8        -1.3481    2.0717   -2.2208 Br        1 <1>        -0.0572 
      9 O9          1.0021    0.7366   -0.8128 O.3       1 <1>        -0.2665 
     10 C10         2.1391    1.5506   -1.1255 C.3       1 <1>         0.2371 
     11 O11         1.7084    2.8210   -1.6550 O.3       1 <1>        -0.2311 
     12 C12         2.1163    2.8298   -2.9175 C.2       1 <1>         0.2495 
     13 C13         2.8657    1.6528   -3.3429 C.2       1 <1>         0.0292 
     14 C14         2.8856    0.8854   -2.2548 C.2       1 <1>        -0.0017 
     15 C15         3.4704    1.3696   -4.6908 C.3       1 <1>        -0.0323 
     16 O16         1.8841    3.7660   -3.6627 O.2       1 <1>        -0.3691 
     17 H1         -0.2924    1.9011    3.4137 H         1 <1>         0.0639 
     18 Br18       -2.7615    3.4615    3.0495 Br        1 <1>        -0.0592 
     19 H3         -2.7432    3.1816    0.1202 H         1 <1>         0.0643 
     20 H4          2.7918    1.7024   -0.2501 H         1 <1>         0.1202 
     21 H5          3.3645   -0.0904   -2.1870 H         1 <1>         0.0705 
     22 H6          3.1362    0.3853   -5.0511 H         1 <1>         0.0347 
     23 H7          4.5676    1.3717   -4.6109 H         1 <1>         0.0347 
     24 H8          3.1634    2.1376   -5.4166 H         1 <1>         0.0347 
@<TRIPOS>BOND
     1    7    1 1    
     2    3    2 ar   
     3    4    3 ar   
     4    5    4 ar   
     5    6    5 ar   
     6    6    7 ar   
     7    2    7 ar   
     8    5    8 1    
     9    6    9 1    
    10    9   10 1    
    11   10   11 1    
    12   11   12 1    
    13   12   13 1    
    14   13   14 2    
    15   10   14 1    
    16   13   15 1    
    17   12   16 2    
    18    2   17 1    
    19    3   18 1    
    20    4   19 1    
    21   10   20 1    
    22   14   21 1    
    23   15   22 1    
    24   15   23 1    
    25   15   24 1    
@<TRIPOS>SUBSTRUCTURE
     1 ****        2 TEMP              0 ****  ****    0 ROOT 
@<TRIPOS>NORMAL
@<TRIPOS>FF_PBC
FORCE_FIELD_SETUP_FEATURE Force Field Setup information
v1.0  0 0.000000 0.000000 0.000000 0.000000 0.000000 0.000000 NONE 0 0 0 0 1 0 0 0 0 0 0 0 0
