#	Name:			PISM00835
#	Creating user name:	baoopengkun
#	Creation time:		Fri Nov 30 19:06:01 2018

#	Modifying user name:	baoopengkun
#	Modification time:	Fri Nov 30 19:09:45 2018

@<TRIPOS>MOLECULE
PISM00835
   31    32     1     2     0
SMALL
GAST_HUCK


@<TRIPOS>ATOM
      1 C1        -15.9389    1.7059   11.0983 C.ar      1 <1>        -0.0351 
      2 C2        -15.5669    3.0256   10.8298 C.ar      1 <1>        -0.0352 
      3 C3        -16.0380    4.0487   11.6566 C.ar      1 <1>         0.0095 
      4 N4        -16.8528    3.7616   12.6920 N.ar      1 <1>        -0.2976 
      5 C5        -17.2494    2.4983   12.9520 C.ar      1 <1>         0.0188 
      6 C6        -16.7813    1.4289   12.1798 C.ar      1 <1>         0.0235 
      7 C7        -17.1697   -0.0065   12.4772 C.2       1 <1>         0.0784 
      8 C8        -17.5778   -0.9195   11.3492 C.3       1 <1>         0.0419 
      9 N9        -16.3838   -1.6108   10.8168 N.3       1 <1>        -0.3188 
     10 N10       -17.1579   -0.5266   13.6435 N.2       1 <1>        -0.1559 
     11 O11       -16.6689    0.4063   14.5768 O.3       1 <1>        -0.1963 
     12 C12       -15.2678    0.2406   14.8258 C.3       1 <1>         0.2541 
     13 C13       -15.0133   -1.1243   15.4178 C.2       1 <1>         0.0005 
     14 C14       -14.5160   -1.0115   16.6479 C.2       1 <1>         0.0293 
     15 C15       -14.4410    0.4299   16.8563 C.2       1 <1>         0.2496 
     16 O16       -14.8498    1.1775   15.8386 O.3       1 <1>        -0.2290 
     17 C17       -14.1248   -2.0986   17.6111 C.3       1 <1>        -0.0323 
     18 O18       -14.0252    0.9188   17.8925 O.2       1 <1>        -0.3691 
     19 H1        -15.5687    0.9032   10.4689 H         1 <1>         0.0732 
     20 H2        -14.9185    3.2545    9.9898 H         1 <1>         0.0704 
     21 H3        -15.7531    5.0792   11.4724 H         1 <1>         0.0808 
     22 H4        -17.9461    2.3293   13.7657 H         1 <1>         0.0824 
     23 H5        -18.0453   -0.3177   10.5531 H         1 <1>         0.0589 
     24 H6        -18.3254   -1.6460   11.7108 H         1 <1>         0.0589 
     25 H7        -16.6501   -2.2487    9.9834 H         1 <1>         0.1206 
     26 H8        -15.9137   -2.2061   11.5889 H         1 <1>         0.1206 
     27 H9        -14.6831    0.3969   13.9053 H         1 <1>         0.1227 
     28 H10       -15.2159   -2.0635   14.9047 H         1 <1>         0.0707 
     29 H11       -14.4587   -3.0836   17.2518 H         1 <1>         0.0347 
     30 H12       -14.5837   -1.9016   18.5916 H         1 <1>         0.0347 
     31 H13       -13.0305   -2.1085   17.7233 H         1 <1>         0.0347 
@<TRIPOS>BOND
     1    2    1 ar   
     2    2    3 ar   
     3    3    4 ar   
     4    4    5 ar   
     5    5    6 ar   
     6    1    6 ar   
     7    6    7 1    
     8    7    8 1    
     9    8    9 1    
    10    7   10 2    
    11   10   11 1    
    12   11   12 1    
    13   12   13 1    
    14   13   14 2    
    15   14   15 1    
    16   15   16 1    
    17   12   16 1    
    18   14   17 1    
    19   15   18 2    
    20    1   19 1    
    21    2   20 1    
    22    3   21 1    
    23    5   22 1    
    24    8   23 1    
    25    8   24 1    
    26    9   25 1    
    27    9   26 1    
    28   12   27 1    
    29   13   28 1    
    30   17   29 1    
    31   17   30 1    
    32   17   31 1    
@<TRIPOS>SUBSTRUCTURE
     1 ****        2 TEMP              0 ****  ****    0 ROOT 
@<TRIPOS>NORMAL
@<TRIPOS>FF_PBC
FORCE_FIELD_SETUP_FEATURE Force Field Setup information
v1.0  0 0.000000 0.000000 0.000000 0.000000 0.000000 0.000000 NONE 0 0 0 0 1 0 0 0 0 0 0 0 0
@<TRIPOS>RENDERING_ATTRS
ANTIALIASED_LINES 
*
