#	Name:			PISM01078
#	Creating user name:	14062
#	Creation time:		Fri Jul 12 00:18:23 2019

#	Modifying user name:	14062
#	Modification time:	Fri Jul 12 00:25:19 2019

@<TRIPOS>MOLECULE
PISM01078
   52    55     1     1     0
SMALL
GAST_HUCK


@<TRIPOS>ATOM
      1 C1          2.8360    4.6803   -3.1190 C.2       1 <1>        -0.0801 
      2 C2          1.5499    4.5330   -3.4649 C.2       1 <1>        -0.0816 
      3 C3          0.6701    3.4663   -2.8469 C.3       1 <1>        -0.0277 
      4 C4          1.3760    2.5497   -1.7993 C.3       1 <1>        -0.0323 
      5 C5          2.9045    2.3505   -2.0724 C.3       1 <1>         0.0405 
      6 C6          3.4565    3.8139   -2.0611 C.3       1 <1>         0.0752 
      7 C7          0.8946    5.4151   -4.5034 C.3       1 <1>        -0.0403 
      8 O8          4.8913    3.8276   -2.1189 O.3       1 <1>        -0.3624 
      9 C9          5.4927    3.0802   -1.0361 C.3       1 <1>         0.1208 
     10 C10         4.4230    2.4775   -0.1031 C.3       1 <1>         0.1302 
     11 C11         3.6479    1.4694   -0.9679 C.3       1 <1>         0.0464 
     12 C12         6.0766    1.7625   -1.6023 C.3       1 <1>         0.1153 
     13 C13         4.9331    0.7057   -1.4470 C.3       1 <1>         0.1248 
     14 C14         2.6927    0.5114   -0.1880 C.3       1 <1>        -0.0532 
     15 H1          3.4628    5.4441   -3.5794 H         1 <1>         0.0267 
     16 H2          0.2912    2.8442   -3.6748 H         1 <1>         0.0411 
     17 H3         -0.2067    3.9464   -2.3820 H         1 <1>         0.0411 
     18 H4          0.8373    1.5891   -1.7888 H         1 <1>         0.0295 
     19 O19         2.6031    0.3768   -3.4570 O.3       1 <1>        -0.2763 
     20 H5          1.2514    3.0134   -0.8064 H         1 <1>         0.0295 
     21 H6          3.1836    4.3533   -1.1365 H         1 <1>         0.0677 
     22 H7          1.5792    6.1821   -4.8962 H         1 <1>         0.0375 
     23 H8          0.0267    5.9253   -4.0595 H         1 <1>         0.0375 
     24 H9          0.5500    4.7981   -5.3467 H         1 <1>         0.0375 
     25 O25         4.0040    3.0165    1.1153 O.3       1 <1>        -0.3648 
     26 C26         4.9763    2.0109    1.3131 C.3       1 <1>         0.0808 
     27 C27         3.0814    1.7373   -3.4975 C.3       1 <1>         0.0867 
     28 H10         6.2363    3.7127   -0.5257 H         1 <1>         0.0655 
     29 O29         6.5474    1.8831   -2.9580 O.3       1 <1>        -0.3862 
     30 O30         5.3312   -0.2551   -0.4389 O.3       1 <1>        -0.2704 
     31 H11         6.9352    1.5020   -0.9575 H         1 <1>         0.0650 
     32 C32         6.3701   -1.0285   -0.7885 C.2       1 <1>         0.2310 
     33 O33         6.9417   -0.9359   -1.8635 O.2       1 <1>        -0.3707 
     34 C34         6.7826   -2.0471    0.2348 C.3       1 <1>         0.0372 
     35 H12         4.7460    0.1193   -2.3580 H         1 <1>         0.0683 
     36 C36         2.7489   -0.2848   -4.6125 C.2       1 <1>         0.2306 
     37 C37         2.2829   -1.7116   -4.5863 C.3       1 <1>         0.0372 
     38 O38         3.2192    0.2162   -5.6213 O.2       1 <1>        -0.3707 
     39 H13         1.9347    1.0748    0.3735 H         1 <1>         0.0237 
     40 H14         3.2048   -0.1236    0.5463 H         1 <1>         0.0237 
     41 H15         2.1954   -0.1658   -0.8978 H         1 <1>         0.0237 
     42 H16         5.8519    2.5056    1.7586 H         1 <1>         0.0590 
     43 H17         4.4819    1.2694    1.9554 H         1 <1>         0.0590 
     44 H18         2.5232    2.2821   -4.2714 H         1 <1>         0.0621 
     45 H19         4.1381    1.8033   -3.7989 H         1 <1>         0.0621 
     46 H20         6.9205    1.0654   -3.2779 H         1 <1>         0.2100 
     47 H21         6.1213   -2.9221    0.1587 H         1 <1>         0.0483 
     48 H22         6.7044   -1.6197    1.2455 H         1 <1>         0.0483 
     49 H23         7.8216   -2.3627    0.0590 H         1 <1>         0.0483 
     50 H24         2.5189   -2.2114   -5.5376 H         1 <1>         0.0483 
     51 H25         1.1955   -1.7364   -4.4255 H         1 <1>         0.0483 
     52 H26         2.7841   -2.2454   -3.7656 H         1 <1>         0.0483 
@<TRIPOS>BOND
     1    1    2 2    
     2    3    2 1    
     3    4    3 1    
     4    5    4 1    
     5    5    6 1    
     6    6    1 1    
     7    2    7 1    
     8    6    8 1    
     9    8    9 1    
    10   10    9 1    
    11   11   10 1    
    12    5   11 1    
    13   12    9 1    
    14   13   12 1    
    15   11   13 1    
    16   11   14 1    
    17   27   19 1    
    18    1   15 1    
    19    3   16 1    
    20    3   17 1    
    21    4   18 1    
    22    4   20 1    
    23    6   21 1    
    24    7   22 1    
    25    7   23 1    
    26    7   24 1    
    27   10   25 1    
    28   10   26 1    
    29   27    5 1    
    30    9   28 1    
    31   12   29 1    
    32   13   30 1    
    33   12   31 1    
    34   26   25 1    
    35   30   32 1    
    36   32   33 2    
    37   32   34 1    
    38   13   35 1    
    39   19   36 1    
    40   36   37 1    
    41   36   38 2    
    42   14   39 1    
    43   14   40 1    
    44   14   41 1    
    45   26   42 1    
    46   26   43 1    
    47   27   44 1    
    48   27   45 1    
    49   29   46 1    
    50   34   47 1    
    51   34   48 1    
    52   34   49 1    
    53   37   50 1    
    54   37   51 1    
    55   37   52 1    
@<TRIPOS>SUBSTRUCTURE
     1 ****        2 TEMP              0 ****  ****    0 ROOT 
@<TRIPOS>NORMAL
@<TRIPOS>FF_PBC
FORCE_FIELD_SETUP_FEATURE Force Field Setup information
v1.0  0 0.000000 0.000000 0.000000 0.000000 0.000000 0.000000 NONE 0 0 0 0 1 0 0 0 0 0 0 0 0
