#	Name:			PISM00144
#	Creating user name:	14062
#	Creation time:		Sat Oct 19 22:14:25 2019

#	Modifying user name:	14062
#	Modification time:	Sat Oct 19 22:16:47 2019

@<TRIPOS>MOLECULE
PISM00144
   34    36     1     1     0
SMALL
GAST_HUCK


@<TRIPOS>ATOM
      1 C1          0.1383   -7.2288    4.5030 C.ar      1 <1>        -0.0819 
      2 C2          1.4481   -6.7613    4.3595 C.ar      1 <1>        -0.0821 
      3 C3          1.6857   -5.3987    4.1560 C.ar      1 <1>        -0.0453 
      4 C4          0.6140   -4.5025    4.0902 C.ar      1 <1>         0.0967 
      5 C5         -0.6958   -4.9724    4.2277 C.ar      1 <1>         0.1160 
      6 C6         -0.9331   -6.3330    4.4392 C.ar      1 <1>        -0.0416 
      7 O7         -1.7672   -4.0814    4.1518 O.3       1 <1>        -0.3247 
      8 C8         -2.2782   -3.9237    2.8184 C.3       1 <1>         0.0571 
      9 N9          0.8411   -3.1809    3.9067 N.pl3     1 <1>        -0.2594 
     10 C10         1.2679   -2.6867    2.7629 C.2       1 <1>         0.1477 
     11 C11         1.5347   -1.3732    2.6264 C.2       1 <1>         0.1126 
     12 C12         2.0337   -0.7965    1.3635 C.2       1 <1>         0.1466 
     13 C13         2.3508   -1.6843    0.1847 C.ar      1 <1>         0.0433 
     14 C14         2.0767   -3.0473    0.2956 C.ar      1 <1>         0.0564 
     15 C15         1.4602   -3.5680    1.5748 C.2       1 <1>         0.2056 
     16 Cl16        1.3127   -0.2465    3.9583 Cl        1 <1>        -0.0896 
     17 O17         2.1999    0.4086    1.2695 O.2       1 <1>        -0.3848 
     18 O18         1.1082   -4.7366    1.5815 O.2       1 <1>        -0.3471 
     19 C19         2.3681   -3.9017   -0.7740 C.ar      1 <1>        -0.0385 
     20 C20         2.9234   -3.3897   -1.9505 C.ar      1 <1>        -0.0523 
     21 C21         3.1892   -2.0219   -2.0610 C.ar      1 <1>        -0.0524 
     22 C22         2.9027   -1.1680   -0.9922 C.ar      1 <1>        -0.0397 
     23 H1         -0.0467   -8.2865    4.6636 H         1 <1>         0.0495 
     24 H2          2.2809   -7.4564    4.4059 H         1 <1>         0.0495 
     25 H3          2.7018   -5.0337    4.0480 H         1 <1>         0.0507 
     26 H4         -1.9516   -6.6891    4.5529 H         1 <1>         0.0508 
     27 H5         -3.1139   -3.2094    2.8511 H         1 <1>         0.0573 
     28 H6         -2.6486   -4.8832    2.4247 H         1 <1>         0.0573 
     29 H7         -1.5035   -3.5292    2.1427 H         1 <1>         0.0573 
     30 H8          0.6545   -2.5713    4.7158 H         1 <1>         0.2165 
     31 H9          2.1649   -4.9653   -0.6962 H         1 <1>         0.0682 
     32 H10         3.1482   -4.0548   -2.7792 H         1 <1>         0.0661 
     33 H11         3.6178   -1.6231   -2.9757 H         1 <1>         0.0662 
     34 H12         3.1097   -0.1056   -1.0777 H         1 <1>         0.0680 
@<TRIPOS>BOND
     1    2    1 ar   
     2    2    3 ar   
     3    3    4 ar   
     4    4    5 ar   
     5    5    6 ar   
     6    1    6 ar   
     7    5    7 1    
     8    7    8 1    
     9    4    9 1    
    10    9   10 1    
    11   10   11 2    
    12   11   12 1    
    13   12   13 1    
    14   13   14 ar   
    15   14   15 1    
    16   10   15 1    
    17   11   16 1    
    18   12   17 2    
    19   15   18 2    
    20   14   19 ar   
    21   19   20 ar   
    22   20   21 ar   
    23   21   22 ar   
    24   13   22 ar   
    25    1   23 1    
    26    2   24 1    
    27    3   25 1    
    28    6   26 1    
    29    8   27 1    
    30    8   28 1    
    31    8   29 1    
    32    9   30 1    
    33   19   31 1    
    34   20   32 1    
    35   21   33 1    
    36   22   34 1    
@<TRIPOS>SUBSTRUCTURE
     1 ****        2 TEMP              0 ****  ****    0 ROOT 
@<TRIPOS>NORMAL
@<TRIPOS>FF_PBC
FORCE_FIELD_SETUP_FEATURE Force Field Setup information
v1.0  0 0.000000 0.000000 0.000000 0.000000 0.000000 0.000000 NONE 0 0 0 0 1 0 0 0 0 0 0 0 0
