#	Name:			PISM01069
#	Creating user name:	Qinrunwen
#	Creation time:		Sun Mar 31 14:50:06 2019

#	Modifying user name:	Qinrunwen
#	Modification time:	Sun Mar 31 14:57:57 2019

@<TRIPOS>MOLECULE
PISM01069
   12    11     1     1     0
SMALL
GAST_HUCK


@<TRIPOS>ATOM
      1 H1         17.7034  -12.6423  -17.4419 H         1 <1>         0.0547 
      2 C2         18.7675  -12.4695  -17.6667 C.3       1 <1>         0.0654 
      3 O3         18.9350  -12.0129  -19.0187 O.3       1 <1>        -0.2420 
      4 S4         18.2768  -10.7049  -19.3835 S.o2      1 <1>         0.0790 
      5 C5         19.7404   -9.6818  -19.5997 C.3       1 <1>         0.0817 
      6 O6         17.5150  -10.1786  -18.2655 O.2       1 <1>        -0.1475 
      7 H2         19.1834  -11.7429  -16.9516 H         1 <1>         0.0547 
      8 O8         17.6370  -10.8585  -20.6743 O.2       1 <1>        -0.1475 
      9 H3         19.3084  -13.4207  -17.5571 H         1 <1>         0.0547 
     10 H4         20.2991   -9.6340  -18.6537 H         1 <1>         0.0489 
     11 H5         19.4325   -8.6689  -19.8964 H         1 <1>         0.0489 
     12 H6         20.3790  -10.1161  -20.3828 H         1 <1>         0.0489 
@<TRIPOS>BOND
     1    2    1 1    
     2    2    3 1    
     3    3    4 1    
     4    4    5 1    
     5    4    6 2    
     6    2    7 1    
     7    4    8 2    
     8    2    9 1    
     9    5   10 1    
    10    5   11 1    
    11    5   12 1    
@<TRIPOS>SUBSTRUCTURE
     1 ****        2 TEMP              0 ****  ****    0 ROOT 
@<TRIPOS>NORMAL
@<TRIPOS>FF_PBC
FORCE_FIELD_SETUP_FEATURE Force Field Setup information
v1.0  0 0.000000 0.000000 0.000000 0.000000 0.000000 0.000000 NONE 0 0 0 0 1 0 0 0 0 0 0 0 0
