#	Name:			PISM00894.1
#	Creating user name:	baoopengkun
#	Creation time:		Fri Dec 14 10:03:55 2018

#	Modifying user name:	baoopengkun
#	Modification time:	Fri Dec 14 10:05:56 2018

@<TRIPOS>MOLECULE
PISM00894.1
   28    29     1     1     0
SMALL
GAST_HUCK


@<TRIPOS>ATOM
      1 C1         14.8833   11.3994    3.3399 C.ar      1 <1>        -0.0400 
      2 C2         16.1874   10.9041    3.2494 C.ar      1 <1>        -0.0722 
      3 C3         16.4316    9.6981    2.5869 C.ar      1 <1>        -0.0740 
      4 C4         15.3676    8.9804    2.0338 C.ar      1 <1>        -0.0722 
      5 C5         14.0619    9.4679    2.1438 C.ar      1 <1>        -0.0400 
      6 C6         13.8160   10.6948    2.7723 C.ar      1 <1>         0.0636 
      7 N7         12.5625   11.2045    2.8504 N.pl3     1 <1>        -0.2144 
      8 C8         11.7694   11.2741    1.8182 C.2       1 <1>         0.3507 
      9 O9         10.6466   11.7323    1.9537 O.2       1 <1>        -0.3605 
     10 O10        12.2013   10.8459    0.6234 O.3       1 <1>        -0.2087 
     11 C11        11.2665   11.0269   -0.4539 C.3       1 <1>         0.2427 
     12 C12         9.9467   10.3253   -0.2344 C.2       1 <1>        -0.0021 
     13 C13         8.9446   11.1967   -0.3383 C.2       1 <1>         0.0291 
     14 C14         9.6121   12.4634   -0.6258 C.2       1 <1>         0.2494 
     15 O15        10.9389   12.4144   -0.6696 O.3       1 <1>        -0.2314 
     16 C16         7.4694   10.9373   -0.2018 C.3       1 <1>        -0.0323 
     17 O17         8.9989   13.4996   -0.8171 O.2       1 <1>        -0.3691 
     18 H1         14.7005   12.3394    3.8507 H         1 <1>         0.0528 
     19 H2         17.0108   11.4565    3.6921 H         1 <1>         0.0586 
     20 H3         17.4457    9.3190    2.5031 H         1 <1>         0.0514 
     21 H4         15.5557    8.0421    1.5206 H         1 <1>         0.0586 
     22 H5         13.2409    8.8809    1.7453 H         1 <1>         0.0528 
     23 H6         12.2274   11.5735    3.7520 H         1 <1>         0.2129 
     24 H7         11.7301   10.6344   -1.3730 H         1 <1>         0.1196 
     25 H8          9.8371    9.2629   -0.0218 H         1 <1>         0.0705 
     26 H9          6.8976   11.7287   -0.7092 H         1 <1>         0.0347 
     27 H10         7.1998   10.9282    0.8647 H         1 <1>         0.0347 
     28 H11         7.2085    9.9665   -0.6490 H         1 <1>         0.0347 
@<TRIPOS>BOND
     1    2    1 ar   
     2    2    3 ar   
     3    3    4 ar   
     4    4    5 ar   
     5    5    6 ar   
     6    1    6 ar   
     7    6    7 1    
     8    7    8 1    
     9    8    9 2    
    10    8   10 1    
    11   10   11 1    
    12   11   12 1    
    13   12   13 2    
    14   13   14 1    
    15   14   15 1    
    16   11   15 1    
    17   13   16 1    
    18   14   17 2    
    19    1   18 1    
    20    2   19 1    
    21    3   20 1    
    22    4   21 1    
    23    5   22 1    
    24    7   23 1    
    25   11   24 1    
    26   12   25 1    
    27   16   26 1    
    28   16   27 1    
    29   16   28 1    
@<TRIPOS>SUBSTRUCTURE
     1 ****        2 TEMP              0 ****  ****    0 ROOT 
@<TRIPOS>NORMAL
@<TRIPOS>FF_PBC
FORCE_FIELD_SETUP_FEATURE Force Field Setup information
v1.0  0 0.000000 0.000000 0.000000 0.000000 0.000000 0.000000 NONE 0 0 0 0 1 0 0 0 0 0 0 0 0
