#	Name:			PISM00182
#	Creating user name:	14062
#	Creation time:		Wed Jun 19 21:30:46 2019

#	Modifying user name:	14062
#	Modification time:	Wed Jun 19 21:33:20 2019

@<TRIPOS>MOLECULE
PISM00182
   44    44     1     1     0
SMALL
GAST_HUCK


@<TRIPOS>ATOM
      1 C1         -8.4112    3.5319    4.5291 C.3       1 BENZYL      0.0582 
      2 C1         -6.9371    3.8820    4.5620 C.2       1 BENZYL      0.1385 
      3 C2         -5.8837    3.1297    3.7694 C.ar      1 BENZYL      0.0217 
      4 C3         -6.1234    1.8831    3.1767 C.ar      1 BENZYL     -0.0543 
      5 C4         -5.1327    1.2494    2.4203 C.ar      1 BENZYL     -0.0377 
      6 C5         -3.8669    1.8261    2.2725 C.ar      1 BENZYL      0.0456 
      7 C6         -3.6134    3.0549    2.8906 C.ar      1 BENZYL     -0.0377 
      8 C7         -4.6140    3.7012    3.6221 C.ar      1 BENZYL     -0.0543 
      9 C9         -9.2145    4.3591    5.5154 C.2       1 BENZYL     -0.0497 
     10 C10       -10.2281    3.9060    6.2716 C.2       1 BENZYL     -0.0439 
     11 C11       -10.7131    2.5102    6.1875 C.2       1 BENZYL     -0.0556 
     12 C12       -11.0909    1.7944    7.2552 C.2       1 BENZYL     -0.0023 
     13 C13       -11.5833    0.4026    7.1675 C.2       1 BENZYL      0.2026 
     14 N14       -11.9634   -0.2777    8.2692 N.am      1 BENZYL     -0.1684 
     15 O15       -12.4956   -1.7974    8.1275 O.3       1 BENZYL     -0.2729 
     16 O16       -11.6460   -0.1402    6.0766 O.2       1 BENZYL     -0.3988 
     17 O17        -6.5727    4.8207    5.2526 O.2       1 BENZYL     -0.3812 
     18 N18        -2.9027    1.2054    1.5440 N.pl3     1 BENZYL     -0.3118 
     19 C19        -2.0491    1.9753    0.6385 C.3       1 BENZYL      0.0163 
     20 C20        -2.7046   -0.2400    1.6575 C.3       1 BENZYL      0.0163 
     21 C21       -10.9146    4.8505    7.2336 C.3       1 BENZYL     -0.0375 
     22 H1         -8.4888    2.4684    4.7941 H         1 BENZYL      0.0699 
     23 C23        -8.9894    3.7949    3.1137 C.3       1 BENZYL     -0.0365 
     24 H3         -7.0763    1.3814    3.2920 H         1 BENZYL      0.0638 
     25 H4         -5.3578    0.3026    1.9412 H         1 BENZYL      0.0531 
     26 H5         -2.6339    3.5142    2.8119 H         1 BENZYL      0.0531 
     27 H6         -4.3933    4.6613    4.0785 H         1 BENZYL      0.0638 
     28 H7         -8.9370    5.4105    5.6057 H         1 BENZYL      0.0697 
     29 H8        -10.7714    2.0401    5.2057 H         1 BENZYL      0.0698 
     30 H9        -11.0320    2.2486    8.2434 H         1 BENZYL      0.0537 
     31 H10       -11.9204    0.1459    9.1741 H         1 BENZYL      0.2198 
     32 H11       -12.4779   -2.0586    7.2108 H         1 BENZYL      0.2489 
     33 H12        -1.1174    2.2486    1.1564 H         1 BENZYL      0.0480 
     34 H13        -2.5510    2.8922    0.2911 H         1 BENZYL      0.0480 
     35 H14        -1.7953    1.3761   -0.2495 H         1 BENZYL      0.0480 
     36 H15        -3.2696   -0.7515    0.8636 H         1 BENZYL      0.0480 
     37 H16        -3.0365   -0.6180    2.6374 H         1 BENZYL      0.0480 
     38 H17        -1.6380   -0.4895    1.5469 H         1 BENZYL      0.0480 
     39 H18       -10.3268    4.9130    8.1617 H         1 BENZYL      0.0349 
     40 H19       -11.9284    4.4984    7.4775 H         1 BENZYL      0.0349 
     41 H20       -11.0098    5.8603    6.8055 H         1 BENZYL      0.0349 
     42 H2         -8.4650    3.2076    2.3459 H         1 BENZYL      0.0283 
     43 H21        -8.8877    4.8620    2.8614 H         1 BENZYL      0.0283 
     44 H22       -10.0573    3.5279    3.0841 H         1 BENZYL      0.0283 
@<TRIPOS>BOND
     1    2    3 1    
     2    3    4 ar   
     3    3    8 ar   
     4    8    7 ar   
     5    7    6 ar   
     6    6    5 ar   
     7    5    4 ar   
     8    2    1 1    
     9    1    9 1    
    10    9   10 2    
    11   10   11 1    
    12   11   12 2    
    13   12   13 1    
    14   13   14 am   
    15   14   15 1    
    16   13   16 2    
    17    2   17 2    
    18    6   18 1    
    19   18   19 1    
    20   18   20 1    
    21   10   21 1    
    22    1   22 1    
    23    1   23 1    
    24    4   24 1    
    25    5   25 1    
    26    7   26 1    
    27    8   27 1    
    28    9   28 1    
    29   11   29 1    
    30   12   30 1    
    31   14   31 1    
    32   15   32 1    
    33   19   33 1    
    34   19   34 1    
    35   19   35 1    
    36   20   36 1    
    37   20   37 1    
    38   20   38 1    
    39   21   39 1    
    40   21   40 1    
    41   21   41 1    
    42   23   42 1    
    43   23   43 1    
    44   23   44 1    
@<TRIPOS>SUBSTRUCTURE
     1 BENZYL      2 PERM              0 ****  ****    0 ROOT 
@<TRIPOS>NORMAL
@<TRIPOS>FF_PBC
FORCE_FIELD_SETUP_FEATURE Force Field Setup information
v1.0  0 0.000000 0.000000 0.000000 0.000000 0.000000 0.000000 NONE 0 0 0 0 1 0 0 0 0 0 0 0 0
