#	Name:			PISM00960
#	Creating user name:	baoopengkun
#	Creation time:		Thu Dec 13 10:35:31 2018

#	Modifying user name:	baoopengkun
#	Modification time:	Thu Dec 13 10:53:42 2018

@<TRIPOS>MOLECULE
PISM00960
   52    55     1     1     0
SMALL
GAST_HUCK


@<TRIPOS>ATOM
      1 C1         -7.7237   10.4191   -8.6176 C.ar      1 <1>         0.0056 
      2 C2         -6.5605   10.7999   -7.9426 C.ar      1 <1>         0.1538 
      3 C3         -6.6595   11.3377   -6.6591 C.ar      1 <1>         0.0056 
      4 C4         -7.9150   11.5371   -6.0795 C.ar      1 <1>        -0.0437 
      5 C5         -9.0931   11.2302   -6.7746 C.ar      1 <1>        -0.0355 
      6 C6         -8.9773   10.6236   -8.0329 C.ar      1 <1>        -0.0437 
      7 C7        -10.4461   11.5756   -6.1050 C.3       1 <1>         0.0735 
      8 O8        -10.3091   11.2582   -4.7056 O.3       1 <1>        -0.4309 
      9 C9        -11.6828   10.7606   -6.6112 C.3       1 <1>        -0.0430 
     10 C10       -10.6849   13.1096   -6.2016 C.3       1 <1>         0.0751 
     11 N11        -9.5587   13.8855   -5.6988 N.pl3     1 <1>        -0.1857 
     12 N12        -9.3490   14.2745   -4.4097 N.2       1 <1>        -0.1910 
     13 C13        -8.2886   14.9779   -4.2605 C.2       1 <1>         0.0618 
     14 N14        -7.8085   15.0317   -5.6138 N.2       1 <1>        -0.2870 
     15 C15        -8.5778   14.4000   -6.3774 C.2       1 <1>         0.1267 
     16 C16       -12.4343   11.3268   -7.8510 C.3       1 <1>        -0.0256 
     17 C17       -13.4622   10.2915   -8.3313 C.ar      1 <1>        -0.0436 
     18 C18       -13.1304    9.3779   -9.3386 C.ar      1 <1>        -0.0597 
     19 C19       -14.0691    8.4401   -9.7785 C.ar      1 <1>        -0.0546 
     20 C20       -15.3457    8.4083   -9.2115 C.ar      1 <1>         0.0330 
     21 C21       -15.6803    9.3142   -8.2019 C.ar      1 <1>        -0.0546 
     22 C22       -14.7404   10.2509   -7.7621 C.ar      1 <1>        -0.0597 
     23 Cl23      -16.5233    7.2354   -9.7649 Cl        1 <1>        -0.0771 
     24 O24        -5.3057   10.6449   -8.5336 O.3       1 <1>        -0.2326 
     25 C25        -5.2089   11.0807   -9.8563 C.ar      1 <1>         0.1283 
     26 C26        -4.5809   10.2690  -10.8045 C.ar      1 <1>        -0.0251 
     27 C27        -4.4987   10.6794  -12.1384 C.ar      1 <1>        -0.0680 
     28 C28        -5.0407   11.9089  -12.5241 C.ar      1 <1>        -0.0708 
     29 C29        -5.6550   12.7305  -11.5744 C.ar      1 <1>        -0.0680 
     30 C30        -5.7315   12.3209  -10.2398 C.ar      1 <1>        -0.0251 
     31 H1         -7.6535    9.9597   -9.5985 H         1 <1>         0.0659 
     32 H2         -5.7574   11.6020   -6.1170 H         1 <1>         0.0659 
     33 H3         -7.9632   11.9412   -5.0725 H         1 <1>         0.0821 
     34 H4         -9.8488   10.2935   -8.5807 H         1 <1>         0.0821 
     35 H5        -10.1336   10.3362   -4.5464 H         1 <1>         0.1927 
     36 H6        -12.4303   10.7334   -5.8004 H         1 <1>         0.0195 
     37 H7        -11.3722    9.7190   -6.7909 H         1 <1>         0.0195 
     38 H8        -11.5728   13.3739   -5.6073 H         1 <1>         0.0547 
     39 H9        -10.8549   13.4141   -7.2444 H         1 <1>         0.0547 
     40 H10        -7.8705   15.4149   -3.3550 H         1 <1>         0.0863 
     41 H11        -8.4259   14.3070   -7.4519 H         1 <1>         0.1361 
     42 H12       -11.7553   11.5760   -8.6781 H         1 <1>         0.0418 
     43 H13       -12.9730   12.2514   -7.5880 H         1 <1>         0.0418 
     44 H14       -12.1409    9.3904   -9.7840 H         1 <1>         0.0557 
     45 H15       -13.8087    7.7346  -10.5609 H         1 <1>         0.0606 
     46 H16       -16.6711    9.2882   -7.7601 H         1 <1>         0.0606 
     47 H17       -15.0088   10.9465   -6.9733 H         1 <1>         0.0557 
     48 H18        -4.1593    9.3169  -10.4995 H         1 <1>         0.0566 
     49 H19        -4.0147   10.0437  -12.8739 H         1 <1>         0.0594 
     50 H20        -4.9837   12.2259  -13.5612 H         1 <1>         0.0540 
     51 H21        -6.0717   13.6876  -11.8737 H         1 <1>         0.0594 
     52 H22        -6.1951   12.9689   -9.5033 H         1 <1>         0.0566 
@<TRIPOS>BOND
     1    2    1 ar   
     2    2    3 ar   
     3    3    4 ar   
     4    4    5 ar   
     5    5    6 ar   
     6    1    6 ar   
     7    5    7 1    
     8    7    8 1    
     9    7    9 1    
    10    7   10 1    
    11   10   11 1    
    12   11   12 1    
    13   12   13 2    
    14   13   14 1    
    15   14   15 2    
    16   11   15 1    
    17    9   16 1    
    18   16   17 1    
    19   17   18 ar   
    20   18   19 ar   
    21   19   20 ar   
    22   20   21 ar   
    23   21   22 ar   
    24   17   22 ar   
    25   20   23 1    
    26    2   24 1    
    27   24   25 1    
    28   25   26 ar   
    29   26   27 ar   
    30   27   28 ar   
    31   28   29 ar   
    32   29   30 ar   
    33   25   30 ar   
    34    1   31 1    
    35    3   32 1    
    36    4   33 1    
    37    6   34 1    
    38    8   35 1    
    39    9   36 1    
    40    9   37 1    
    41   10   38 1    
    42   10   39 1    
    43   13   40 1    
    44   15   41 1    
    45   16   42 1    
    46   16   43 1    
    47   18   44 1    
    48   19   45 1    
    49   21   46 1    
    50   22   47 1    
    51   26   48 1    
    52   27   49 1    
    53   28   50 1    
    54   29   51 1    
    55   30   52 1    
@<TRIPOS>SUBSTRUCTURE
     1 ****        2 TEMP              0 ****  ****    0 ROOT 
@<TRIPOS>NORMAL
@<TRIPOS>FF_PBC
FORCE_FIELD_SETUP_FEATURE Force Field Setup information
v1.0  0 0.000000 0.000000 0.000000 0.000000 0.000000 0.000000 NONE 0 0 0 0 1 0 0 0 0 0 0 0 0
