#	Name:			PISM00307
#	Creating user name:	baoopengkun
#	Creation time:		Sun Dec 16 04:01:13 2018

#	Modifying user name:	baoopengkun
#	Modification time:	Sun Dec 16 04:03:17 2018

@<TRIPOS>MOLECULE
PISM00307
   36    37     1     1     0
SMALL
GAST_HUCK


@<TRIPOS>ATOM
      1 N1         -8.2661   13.2112   46.4104 N.pl3     1 <1>         0.0320 
      2 O2         -8.3615   12.4290   45.4887 O.2       1 <1>        -0.1263 
      3 O3         -8.3915   12.7203   47.7196 O.3       1 <1>        -0.2394 
      4 C4         -8.0517   14.5325   46.1825 C.ar      1 <1>         0.1151 
      5 C5         -7.9905   15.4345   47.2524 C.ar      1 <1>        -0.0370 
      6 C6         -7.7261   16.7885   47.0276 C.ar      1 <1>        -0.0476 
      7 C7         -7.5015   17.2551   45.7306 C.ar      1 <1>         0.0942 
      8 C8         -7.6185   16.3733   44.6535 C.ar      1 <1>        -0.0476 
      9 C9         -7.8864   15.0199   44.8792 C.ar      1 <1>        -0.0370 
     10 S10        -7.0736   18.9595   45.4712 S.o2      1 <1>         0.0636 
     11 O11        -8.1390   19.7874   45.9999 O.2       1 <1>        -0.1519 
     12 O12        -6.6309   19.1407   44.1026 O.2       1 <1>        -0.1519 
     13 N13        -5.7768   19.0962   46.4558 N.am      1 <1>        -0.2386 
     14 C14        -4.4705   18.5786   46.0665 C.3       1 <1>         0.0570 
     15 C15        -4.5894   17.0649   45.8515 C.ar      1 <1>        -0.0313 
     16 C16        -4.7482   16.2210   46.9556 C.ar      1 <1>        -0.0653 
     17 C17        -4.9040   14.8434   46.7781 C.ar      1 <1>        -0.0670 
     18 C18        -4.8943   14.2925   45.4922 C.ar      1 <1>        -0.0528 
     19 C19        -4.7034   15.1325   44.3903 C.ar      1 <1>        -0.0670 
     20 C20        -4.5534   16.5108   44.5673 C.ar      1 <1>        -0.0653 
     21 C21        -5.0913   12.7877   45.2753 C.3       1 <1>        -0.0343 
     22 H1         -7.7566   12.0306   47.8790 H         1 <1>         0.2523 
     23 H2         -8.1460   15.0931   48.2702 H         1 <1>         0.0512 
     24 H3         -7.6887   17.4819   47.8611 H         1 <1>         0.0600 
     25 H4         -7.4951   16.7391   43.6398 H         1 <1>         0.0600 
     26 H5         -7.9604   14.3519   44.0275 H         1 <1>         0.0512 
     27 H6         -5.8868   19.5157   47.3589 H         1 <1>         0.1696 
     28 H7         -3.7118   18.7669   46.8437 H         1 <1>         0.0625 
     29 H8         -4.1396   19.0871   45.1478 H         1 <1>         0.0625 
     30 H9         -4.7569   16.6372   47.9580 H         1 <1>         0.0540 
     31 H10        -5.0341   14.2051   47.6461 H         1 <1>         0.0540 
     32 H11        -4.6733   14.7146   43.3890 H         1 <1>         0.0540 
     33 H12        -4.4149   17.1472   43.6992 H         1 <1>         0.0540 
     34 H13        -5.7743   12.6159   44.4298 H         1 <1>         0.0378 
     35 H14        -5.5139   12.3012   46.1668 H         1 <1>         0.0378 
     36 H15        -4.1169   12.3310   45.0479 H         1 <1>         0.0378 
@<TRIPOS>BOND
     1    2    1 2    
     2    1    3 1    
     3    1    4 1    
     4    4    5 ar   
     5    5    6 ar   
     6    6    7 ar   
     7    7    8 ar   
     8    8    9 ar   
     9    4    9 ar   
    10    7   10 1    
    11   10   11 2    
    12   10   12 2    
    13   10   13 1    
    14   13   14 1    
    15   14   15 1    
    16   15   16 ar   
    17   16   17 ar   
    18   17   18 ar   
    19   18   19 ar   
    20   19   20 ar   
    21   15   20 ar   
    22   18   21 1    
    23    3   22 1    
    24    5   23 1    
    25    6   24 1    
    26    8   25 1    
    27    9   26 1    
    28   13   27 1    
    29   14   28 1    
    30   14   29 1    
    31   16   30 1    
    32   17   31 1    
    33   19   32 1    
    34   20   33 1    
    35   21   34 1    
    36   21   35 1    
    37   21   36 1    
@<TRIPOS>SUBSTRUCTURE
     1 ****        2 TEMP              0 ****  ****    0 ROOT 
@<TRIPOS>NORMAL
@<TRIPOS>FF_PBC
FORCE_FIELD_SETUP_FEATURE Force Field Setup information
v1.0  0 0.000000 0.000000 0.000000 0.000000 0.000000 0.000000 NONE 0 0 0 0 1 0 0 0 0 0 0 0 0
