#	Name:			PISM00499
#	Creating user name:	malab
#	Creation time:		Thu Apr 04 12:25:50 2019

#	Modifying user name:	malab
#	Modification time:	Thu Apr 04 12:29:17 2019

@<TRIPOS>MOLECULE
PISM00499
   44    46     1     1     0
SMALL
GAST_HUCK


@<TRIPOS>ATOM
      1 C1         29.8466    3.5034   -1.7239 C.3       1 <1>         0.3429 
      2 C2         29.0451    4.6699   -1.1327 C.ar      1 <1>         0.0165 
      3 C3         29.0698    5.9484   -1.6990 C.ar      1 <1>        -0.0461 
      4 C4         28.3324    6.9890   -1.1271 C.ar      1 <1>        -0.0380 
      5 C5         27.5879    6.7727    0.0383 C.ar      1 <1>        -0.0135 
      6 C6         27.5779    5.4988    0.6161 C.ar      1 <1>        -0.0380 
      7 C7         28.2693    4.4473    0.0133 C.ar      1 <1>        -0.0461 
      8 C8         26.8511    7.9347    0.6767 C.2       1 <1>         0.0053 
      9 C9         25.5967    7.9713    1.1688 C.2       1 <1>         0.1693 
     10 N10        24.8160    6.9262    0.9736 N.pl3     1 <1>        -0.1023 
     11 N11        25.0654    5.8606    0.1533 N.2       1 <1>        -0.1643 
     12 C12        24.1451    4.9746    0.0850 C.2       1 <1>         0.0703 
     13 N13        23.2021    5.5535    0.9911 N.2       1 <1>        -0.2767 
     14 C14        23.6349    6.6355    1.4516 C.2       1 <1>         0.1587 
     15 C15        25.2975    9.2931    1.9005 C.3       1 <1>         0.1531 
     16 O16        26.3410    9.4873    2.8760 O.3       1 <1>        -0.3654 
     17 C17        23.9516    9.8301    2.5016 C.3       1 <1>         0.0615 
     18 C18        23.5753    9.0893    3.8323 C.3       1 <1>        -0.0497 
     19 C19        24.1531   11.3378    2.8723 C.3       1 <1>         0.0634 
     20 O20        24.4816   12.1238    1.7150 O.3       1 <1>        -0.3531 
     21 C21        23.4548   12.0831    0.7128 C.3       1 <1>         0.1482 
     22 O22        23.2182   10.7203    0.3197 O.3       1 <1>        -0.3531 
     23 C23        22.8243    9.8827    1.4198 C.3       1 <1>         0.0634 
     24 F24        29.0167    2.4468   -1.9434 F         1 <1>        -0.2520 
     25 F25        30.8045    3.1338   -0.8332 F         1 <1>        -0.2520 
     26 F26        30.4423    3.8515   -2.8965 F         1 <1>        -0.2520 
     27 H1         29.6664    6.1417   -2.5849 H         1 <1>         0.0791 
     28 H2         28.3437    7.9722   -1.5884 H         1 <1>         0.0641 
     29 H3         27.0342    5.3239    1.5414 H         1 <1>         0.0641 
     30 H4         28.2122    3.4494    0.4365 H         1 <1>         0.0791 
     31 H5         27.5012    8.8103    0.7382 H         1 <1>         0.0482 
     32 H6         24.0874    4.0512   -0.4871 H         1 <1>         0.0906 
     33 H7         22.9724    7.1248    2.1521 H         1 <1>         0.1423 
     34 H8         25.5083   10.0288    1.1071 H         1 <1>         0.0923 
     35 H9         26.3230    8.8652    3.5935 H         1 <1>         0.2153 
     36 H10        22.4819    9.0662    3.9658 H         1 <1>         0.0240 
     37 H11        24.0073    9.5912    4.7133 H         1 <1>         0.0240 
     38 H12        23.9636    8.0640    3.8811 H         1 <1>         0.0240 
     39 H13        24.9979   11.4655    3.5645 H         1 <1>         0.0570 
     40 H14        23.2553   11.7505    3.3634 H         1 <1>         0.0570 
     41 H15        23.8199   12.6329   -0.1680 H         1 <1>         0.0871 
     42 H16        22.5338   12.5755    1.0689 H         1 <1>         0.0871 
     43 H17        22.6252    8.9270    0.9280 H         1 <1>         0.0570 
     44 H18        21.8711   10.2399    1.8459 H         1 <1>         0.0570 
@<TRIPOS>BOND
     1    2    1 1    
     2    2    3 ar   
     3    3    4 ar   
     4    4    5 ar   
     5    6    5 ar   
     6    7    6 ar   
     7    2    7 ar   
     8    5    8 1    
     9    8    9 2    
    10    9   10 1    
    11   10   11 1    
    12   11   12 2    
    13   12   13 1    
    14   13   14 2    
    15   10   14 1    
    16    9   15 1    
    17   15   16 1    
    18   15   17 1    
    19   17   18 1    
    20   17   19 1    
    21   19   20 1    
    22   20   21 1    
    23   22   21 1    
    24   23   22 1    
    25   17   23 1    
    26    1   24 1    
    27    1   25 1    
    28    1   26 1    
    29    3   27 1    
    30    4   28 1    
    31    6   29 1    
    32    7   30 1    
    33    8   31 1    
    34   12   32 1    
    35   14   33 1    
    36   15   34 1    
    37   16   35 1    
    38   18   36 1    
    39   18   37 1    
    40   18   38 1    
    41   19   39 1    
    42   19   40 1    
    43   21   41 1    
    44   21   42 1    
    45   23   43 1    
    46   23   44 1    
@<TRIPOS>SUBSTRUCTURE
     1 ****        2 TEMP              0 ****  ****    0 ROOT 
@<TRIPOS>NORMAL
@<TRIPOS>FF_PBC
FORCE_FIELD_SETUP_FEATURE Force Field Setup information
v1.0  0 0.000000 0.000000 0.000000 0.000000 0.000000 0.000000 NONE 0 0 0 0 1 0 0 0 0 0 0 0 0
