#	Name:			PISM00049
#	Creating user name:	baoopengkun
#	Creation time:		Thu Dec 27 12:23:49 2018

#	Modifying user name:	baoopengkun
#	Modification time:	Thu Dec 27 12:26:03 2018

@<TRIPOS>MOLECULE
PISM00049
   28    29     1     1     0
SMALL
GAST_HUCK


@<TRIPOS>ATOM
      1 C1          5.5564    2.3999  -22.6905 C.3       1 <1>         0.0809 
      2 N2          4.9715    2.0545  -21.4086 N.pl3     1 <1>        -0.1102 
      3 N3          4.6891    0.8015  -21.0058 N.2       1 <1>        -0.0591 
      4 N4          4.0405    0.8814  -19.8272 N.2       1 <1>        -0.1583 
      5 C5          3.9489    2.3032  -19.5629 C.2       1 <1>         0.2214 
      6 N6          4.5014    2.9422  -20.5131 N.2       1 <1>        -0.1470 
      7 N7          3.3922    2.8587  -18.5228 N.pl3     1 <1>        -0.2161 
      8 C8          2.8340    2.1558  -17.5715 C.2       1 <1>         0.2323 
      9 O9          2.7926    0.9370  -17.5842 O.2       1 <1>        -0.3769 
     10 C10         2.2123    2.8887  -16.4020 C.3       1 <1>         0.1645 
     11 O11         1.5973    1.9908  -15.4571 O.3       1 <1>        -0.2957 
     12 C12         1.0109    2.6224  -14.3605 C.ar      1 <1>         0.1091 
     13 C13         1.7653    2.8837  -13.2124 C.ar      1 <1>         0.0687 
     14 C14         1.1745    3.5255  -12.1203 C.ar      1 <1>        -0.0426 
     15 C15        -0.1693    3.9061  -12.1747 C.ar      1 <1>         0.0291 
     16 C16        -0.9255    3.6378  -13.3192 C.ar      1 <1>        -0.0564 
     17 C17        -0.3354    2.9937  -14.4107 C.ar      1 <1>        -0.0315 
     18 Cl18        3.4504    2.4093  -13.1396 Cl        1 <1>        -0.0787 
     19 Cl19       -0.9050    4.7189  -10.8088 Cl        1 <1>        -0.0810 
     20 H1          5.3352    1.6133  -23.4273 H         1 <1>         0.0626 
     21 H2          6.6458    2.4957  -22.5746 H         1 <1>         0.0626 
     22 H3          5.1412    3.3551  -23.0445 H         1 <1>         0.0626 
     23 H4          3.4014    3.8862  -18.4651 H         1 <1>         0.2117 
     24 H5          1.4508    3.5798  -16.7949 H         1 <1>         0.0868 
     25 H6          3.0054    3.4663  -15.9029 H         1 <1>         0.0868 
     26 H7          1.7593    3.7285  -11.2296 H         1 <1>         0.0601 
     27 H8         -1.9700    3.9300  -13.3581 H         1 <1>         0.0597 
     28 H9         -0.9190    2.7793  -15.3000 H         1 <1>         0.0543 
@<TRIPOS>BOND
     1    2    1 1    
     2    2    3 1    
     3    3    4 2    
     4    4    5 1    
     5    5    6 2    
     6    2    6 1    
     7    5    7 1    
     8    7    8 1    
     9    8    9 2    
    10    8   10 1    
    11   10   11 1    
    12   11   12 1    
    13   12   13 ar   
    14   13   14 ar   
    15   14   15 ar   
    16   15   16 ar   
    17   16   17 ar   
    18   12   17 ar   
    19   13   18 1    
    20   15   19 1    
    21    1   20 1    
    22    1   21 1    
    23    1   22 1    
    24    7   23 1    
    25   10   24 1    
    26   10   25 1    
    27   14   26 1    
    28   16   27 1    
    29   17   28 1    
@<TRIPOS>SUBSTRUCTURE
     1 ****        2 TEMP              0 ****  ****    0 ROOT 
@<TRIPOS>NORMAL
@<TRIPOS>FF_PBC
FORCE_FIELD_SETUP_FEATURE Force Field Setup information
v1.0  0 0.000000 0.000000 0.000000 0.000000 0.000000 0.000000 NONE 0 0 0 0 1 0 0 0 0 0 0 0 0
