#	Name:			PISM00161
#	Creating user name:	14062
#	Creation time:		Sun Mar 31 11:38:12 2019

#	Modifying user name:	14062
#	Modification time:	Sun Mar 31 11:42:53 2019

@<TRIPOS>MOLECULE
PISM00161
   25    25     1     1     0
SMALL
GAST_HUCK


@<TRIPOS>ATOM
      1 C1          2.8099    1.8349   -1.7578 C.ar      1 <1>        -0.0326 
      2 C2          2.0268    2.7979   -1.1166 C.ar      1 <1>        -0.0567 
      3 C3          0.7216    3.0343   -1.5544 C.ar      1 <1>         0.0285 
      4 C4          0.2005    2.2916   -2.6175 C.ar      1 <1>        -0.0567 
      5 C5          0.9797    1.3133   -3.2434 C.ar      1 <1>        -0.0326 
      6 C6          2.2971    1.0899   -2.8238 C.ar      1 <1>         0.0906 
      7 Cl7        -0.2558    4.2597   -0.7722 Cl        1 <1>        -0.0810 
      8 O8          3.1263    0.1366   -3.4251 O.3       1 <1>        -0.3051 
      9 C9          3.1178   -0.1720   -4.8353 C.3       1 <1>         0.1750 
     10 C10         3.2518    1.1216   -5.6865 C.3       1 <1>        -0.0238 
     11 C11         4.3757   -1.0555   -5.0414 C.3       1 <1>        -0.0238 
     12 C12         1.9162   -0.9994   -5.2460 C.2       1 <1>         0.2896 
     13 O13         1.5813   -1.9981   -4.4257 O.3       1 <1>        -0.2910 
     14 O14         1.2817   -0.7650   -6.2645 O.2       1 <1>        -0.3091 
     15 H1          3.8295    1.6588   -1.4305 H         1 <1>         0.0543 
     16 H2          2.4315    3.3619   -0.2816 H         1 <1>         0.0595 
     17 H3         -0.8140    2.4781   -2.9566 H         1 <1>         0.0595 
     18 H4          0.5398    0.7393   -4.0483 H         1 <1>         0.0543 
     19 H5          3.3931    0.8664   -6.7486 H         1 <1>         0.0247 
     20 H6          4.1163    1.7114   -5.3450 H         1 <1>         0.0247 
     21 H7          2.3499    1.7449   -5.5974 H         1 <1>         0.0247 
     22 H8          4.3203   -1.9518   -4.4046 H         1 <1>         0.0247 
     23 H9          5.2800   -0.4920   -4.7640 H         1 <1>         0.0247 
     24 H10         4.4659   -1.3734   -6.0913 H         1 <1>         0.0247 
     25 H11         0.8163   -2.4665   -4.7396 H         1 <1>         0.2528 
@<TRIPOS>BOND
     1    2    1 ar   
     2    2    3 ar   
     3    3    4 ar   
     4    4    5 ar   
     5    5    6 ar   
     6    1    6 ar   
     7    3    7 1    
     8    6    8 1    
     9    8    9 1    
    10    9   10 1    
    11    9   11 1    
    12    9   12 1    
    13   12   13 1    
    14   12   14 2    
    15    1   15 1    
    16    2   16 1    
    17    4   17 1    
    18    5   18 1    
    19   10   19 1    
    20   10   20 1    
    21   10   21 1    
    22   11   22 1    
    23   11   23 1    
    24   11   24 1    
    25   13   25 1    
@<TRIPOS>SUBSTRUCTURE
     1 ****        2 TEMP              0 ****  ****    0 ROOT 
@<TRIPOS>NORMAL
@<TRIPOS>FF_PBC
FORCE_FIELD_SETUP_FEATURE Force Field Setup information
v1.0  0 0.000000 0.000000 0.000000 0.000000 0.000000 0.000000 NONE 0 0 0 0 1 0 0 0 0 0 0 0 0
