#	Name:			PISM01109
#	Creating user name:	14062
#	Creation time:		Sat Apr 06 21:25:42 2019

#	Modifying user name:	14062
#	Modification time:	Sat Apr 06 21:28:19 2019

@<TRIPOS>MOLECULE
PISM01109
   46    48     1     2     0
SMALL
GAST_HUCK


@<TRIPOS>ATOM
      1 C1          6.1758    4.8167    5.0460 C.2       1 BENZYL      0.1186 
      2 C1          7.4081    4.9210    4.5309 C.2       1 BENZYL     -0.0330 
      3 C2          8.0483    3.9273    3.5857 C.ar      1 BENZYL     -0.0329 
      4 C3          7.9657    2.5466    3.7984 C.ar      1 BENZYL     -0.0611 
      5 C4          8.5348    1.6577    2.8816 C.ar      1 BENZYL     -0.0492 
      6 C5          9.2463    2.1457    1.7826 C.ar      1 BENZYL      0.0157 
      7 C6          9.3655    3.5241    1.5881 C.ar      1 BENZYL     -0.0492 
      8 C7          8.7613    4.4106    2.4836 C.ar      1 BENZYL     -0.0611 
      9 S9          9.9881    1.0183    0.6308 S.3       1 BENZYL     -0.1044 
     10 C10         8.7697    1.1880   -0.7080 C.3       1 BENZYL     -0.0044 
     11 C11         5.1271    3.8139    4.8240 C.2       1 BENZYL      0.2702 
     12 N12         4.0483    4.0118    5.5982 N.am      1 BENZYL     -0.0630 
     13 C13         4.0717    5.0961    6.3989 C.2       1 BENZYL      0.3070 
     14 S14         5.5835    6.0262    6.1955 S.3       1 BENZYL      0.0447 
     15 O15         5.2139    2.9050    4.0163 O.2       1 BENZYL     -0.3723 
     16 O16         3.1623    5.3872    7.1568 O.2       1 BENZYL     -0.3681 
     17 N17         2.0217    2.4028    5.5540 N.pl3     1 BENZYL     -0.1825 
     18 C18         1.5270    1.9617    4.2582 C.3       1 BENZYL      0.0456 
     19 C19         1.5080    1.9784    6.7351 C.ar      1 BENZYL      0.0743 
     20 C20         0.2822    1.3070    6.8320 C.ar      1 BENZYL     -0.0353 
     21 C21        -0.1978    0.8904    8.0780 C.ar      1 BENZYL     -0.0520 
     22 C22         0.5298    1.1465    9.2452 C.ar      1 BENZYL      0.0482 
     23 C23         1.7516    1.8206    9.1484 C.ar      1 BENZYL     -0.0520 
     24 C24         2.2352    2.2289    7.9024 C.ar      1 BENZYL     -0.0353 
     25 C25         0.0024    0.7010   10.5931 C.2       1 BENZYL      0.2528 
     26 O26         0.6613    0.9236   11.5976 O.2       1 BENZYL     -0.3635 
     27 O27        -1.1807    0.0699   10.6622 O.3       1 BENZYL     -0.2827 
     28 C28        -1.5711   -0.2969   12.0005 C.3       1 BENZYL      0.0644 
     29 H1          8.0087    5.7890    4.8034 H         1 BENZYL      0.0582 
     30 H2          7.4707    2.1563    4.6816 H         1 BENZYL      0.0600 
     31 H3          8.4290    0.5871    3.0242 H         1 BENZYL      0.0568 
     32 H4          9.9274    3.9059    0.7422 H         1 BENZYL      0.0568 
     33 H5          8.8469    5.4804    2.3197 H         1 BENZYL      0.0600 
     34 H6          9.0482    0.5175   -1.5341 H         1 BENZYL      0.0366 
     35 H7          8.7544    2.2254   -1.0734 H         1 BENZYL      0.0366 
     36 H8          7.7706    0.9149   -0.3372 H         1 BENZYL      0.0366 
     37 H9          1.4439    0.8649    4.2124 H         1 BENZYL      0.0507 
     38 H10         2.2486    2.2879    3.4942 H         1 BENZYL      0.0507 
     39 H11         0.5525    2.4247    4.0418 H         1 BENZYL      0.0507 
     40 H12        -0.3164    1.1034    5.9518 H         1 BENZYL      0.0531 
     41 H13        -1.1458    0.3649    8.1347 H         1 BENZYL      0.0639 
     42 H14         2.3317    2.0298   10.0418 H         1 BENZYL      0.0639 
     43 H15         3.1876    2.7439    7.8419 H         1 BENZYL      0.0531 
     44 H16        -2.5460   -0.8024   11.9430 H         1 BENZYL      0.0575 
     45 H17        -1.6778    0.5916   12.6432 H         1 BENZYL      0.0575 
     46 H18        -0.8453   -0.9922   12.4520 H         1 BENZYL      0.0575 
@<TRIPOS>BOND
     1    2    3 1    
     2    3    4 ar   
     3    3    8 ar   
     4    8    7 ar   
     5    7    6 ar   
     6    6    5 ar   
     7    5    4 ar   
     8    2    1 2    
     9    6    9 1    
    10    9   10 1    
    11    1   11 1    
    12   11   12 am   
    13   12   13 am   
    14   13   14 1    
    15    1   14 1    
    16   11   15 2    
    17   13   16 2    
    18   12   17 1    
    19   17   18 1    
    20   17   19 1    
    21   19   20 ar   
    22   20   21 ar   
    23   21   22 ar   
    24   22   23 ar   
    25   23   24 ar   
    26   19   24 ar   
    27   22   25 1    
    28   25   26 2    
    29   25   27 1    
    30   27   28 1    
    31    2   29 1    
    32    4   30 1    
    33    5   31 1    
    34    7   32 1    
    35    8   33 1    
    36   10   34 1    
    37   10   35 1    
    38   10   36 1    
    39   18   37 1    
    40   18   38 1    
    41   18   39 1    
    42   20   40 1    
    43   21   41 1    
    44   23   42 1    
    45   24   43 1    
    46   28   44 1    
    47   28   45 1    
    48   28   46 1    
@<TRIPOS>SUBSTRUCTURE
     1 BENZYL      2 PERM              0 ****  ****    0 ROOT 
@<TRIPOS>NORMAL
@<TRIPOS>FF_PBC
FORCE_FIELD_SETUP_FEATURE Force Field Setup information
v1.0  0 0.000000 0.000000 0.000000 0.000000 0.000000 0.000000 NONE 0 0 0 0 1 0 0 0 0 0 0 0 0
@<TRIPOS>RENDERING_ATTRS
ANTIALIASED_LINES 
*
