#	Name:			PISM00987
#	Creating user name:	baoopengkun
#	Creation time:		Fri Jan 11 22:05:04 2019

#	Modifying user name:	baoopengkun
#	Modification time:	Fri Jan 11 22:06:51 2019

@<TRIPOS>MOLECULE
PISM00987
   47    50     1     1     0
SMALL
GAST_HUCK


@<TRIPOS>ATOM
      1 C1         13.8084    2.6824    0.7439 C.ar      1 <1>        -0.0520 
      2 C2         12.7822    3.1219   -0.1047 C.ar      1 <1>        -0.0363 
      3 C3         13.1148    3.3493   -1.4388 C.ar      1 <1>         0.0783 
      4 C4         14.4087    3.1922   -1.9076 C.ar      1 <1>         0.0783 
      5 C5         15.4436    2.7821   -1.0661 C.ar      1 <1>        -0.0363 
      6 C6         15.1187    2.5071    0.2698 C.ar      1 <1>        -0.0520 
      7 C7         12.2996    3.7720   -2.6347 C.2       1 <1>         0.2592 
      8 O8         11.1027    4.0028   -2.5989 O.2       1 <1>        -0.3539 
      9 N9         13.1022    3.8414   -3.6660 N.pl3     1 <1>        -0.1376 
     10 C10        14.3433    3.5403   -3.3741 C.2       1 <1>         0.2592 
     11 O11        15.3043    3.5183   -4.1213 O.2       1 <1>        -0.3539 
     12 C12        12.6865    4.1800   -4.9131 C.ar      1 <1>         0.0870 
     13 C13        11.5460    3.5802   -5.4623 C.ar      1 <1>        -0.0340 
     14 C14        11.1501    3.8701   -6.7721 C.ar      1 <1>        -0.0439 
     15 C15        11.8898    4.7695   -7.5476 C.ar      1 <1>         0.1024 
     16 C16        12.9606    5.4545   -6.9675 C.ar      1 <1>        -0.0439 
     17 C17        13.3876    5.1266   -5.6749 C.ar      1 <1>        -0.0340 
     18 S18        11.4017    5.0517   -9.2369 S.o2      1 <1>         0.0831 
     19 O19        10.8739    3.8096   -9.7656 O.2       1 <1>        -0.1463 
     20 O20        10.5656    6.2333   -9.2604 O.2       1 <1>        -0.1463 
     21 N21        12.7774    5.3980  -10.0458 N.am      1 <1>        -0.1939 
     22 C22        12.7113    6.0724  -11.2929 C.ar      1 <1>         0.0489 
     23 C23        11.7780    5.6821  -12.2577 C.ar      1 <1>        -0.0508 
     24 C24        11.6836    6.3612  -13.4769 C.ar      1 <1>        -0.0595 
     25 C25        12.4663    7.5076  -13.6913 C.ar      1 <1>        -0.0608 
     26 C26        13.4356    7.8675  -12.7468 C.ar      1 <1>        -0.0821 
     27 C27        13.5776    7.1379  -11.5613 C.ar      1 <1>        -0.0586 
     28 C28        10.7319    5.8261  -14.5597 C.3       1 <1>        -0.0373 
     29 C29        12.2724    8.3641  -14.9518 C.3       1 <1>        -0.0414 
     30 H1         13.5855    2.4755    1.7865 H         1 <1>         0.0663 
     31 H2         11.7704    3.2770    0.2539 H         1 <1>         0.0683 
     32 H3         16.4560    2.6792   -1.4395 H         1 <1>         0.0683 
     33 H4         15.8933    2.1528    0.9456 H         1 <1>         0.0663 
     34 H5         10.9604    2.8752   -4.8813 H         1 <1>         0.0540 
     35 H6         10.2665    3.3999   -7.1954 H         1 <1>         0.0608 
     36 H7         13.4629    6.2446   -7.5168 H         1 <1>         0.0608 
     37 H8         14.2653    5.6127   -5.2625 H         1 <1>         0.0540 
     38 H9         13.6698    5.1462   -9.6732 H         1 <1>         0.2133 
     39 H10        11.1229    4.8402  -12.0664 H         1 <1>         0.0401 
     40 H11        14.0861    8.7205  -12.9225 H         1 <1>         0.0497 
     41 H12        14.3480    7.4056  -10.8454 H         1 <1>         0.0410 
     42 H13        11.1801    5.9396  -15.5555 H         1 <1>         0.0374 
     43 H14         9.7831    6.3784  -14.5244 H         1 <1>         0.0374 
     44 H15        10.5160    4.7570  -14.4202 H         1 <1>         0.0374 
     45 H16        12.6826    9.3771  -14.8135 H         1 <1>         0.0345 
     46 H17        11.2045    8.4675  -15.2042 H         1 <1>         0.0345 
     47 H18        12.7987    7.8745  -15.7875 H         1 <1>         0.0345 
@<TRIPOS>BOND
     1    2    1 ar   
     2    2    3 ar   
     3    3    4 ar   
     4    4    5 ar   
     5    5    6 ar   
     6    1    6 ar   
     7    3    7 1    
     8    7    8 2    
     9    7    9 1    
    10    9   10 1    
    11   10   11 2    
    12    4   10 1    
    13    9   12 1    
    14   12   13 ar   
    15   13   14 ar   
    16   14   15 ar   
    17   15   16 ar   
    18   16   17 ar   
    19   12   17 ar   
    20   15   18 1    
    21   18   19 2    
    22   18   20 2    
    23   18   21 1    
    24   21   22 1    
    25   22   23 ar   
    26   23   24 ar   
    27   24   25 ar   
    28   25   26 ar   
    29   26   27 ar   
    30   22   27 ar   
    31   24   28 1    
    32   25   29 1    
    33    1   30 1    
    34    2   31 1    
    35    5   32 1    
    36    6   33 1    
    37   13   34 1    
    38   14   35 1    
    39   16   36 1    
    40   17   37 1    
    41   21   38 1    
    42   23   39 1    
    43   26   40 1    
    44   27   41 1    
    45   28   42 1    
    46   28   43 1    
    47   28   44 1    
    48   29   45 1    
    49   29   46 1    
    50   29   47 1    
@<TRIPOS>SUBSTRUCTURE
     1 ****        2 TEMP              0 ****  ****    0 ROOT 
@<TRIPOS>NORMAL
@<TRIPOS>FF_PBC
FORCE_FIELD_SETUP_FEATURE Force Field Setup information
v1.0  0 0.000000 0.000000 0.000000 0.000000 0.000000 0.000000 NONE 0 0 0 0 1 0 0 0 0 0 0 0 0
