#	Name:			PISM00110
#	Creating user name:	baoopengkun
#	Creation time:		Wed Dec 19 12:10:45 2018

#	Modifying user name:	baoopengkun
#	Modification time:	Wed Dec 19 12:12:48 2018

@<TRIPOS>MOLECULE
PISM00110
   47    49     1     1     0
SMALL
USER_CHARGES


@<TRIPOS>ATOM
      1 Br1        27.1620   22.1981  -38.9822 Br        1 <1>         0.0000 
      2 C2         27.9392   22.8299  -40.5412 C.ar      1 <1>         0.0000 
      3 C3         29.3294   22.8333  -40.6806 C.ar      1 <1>         0.0000 
      4 C4         29.9111   23.3211  -41.8529 C.ar      1 <1>         0.0000 
      5 C5         29.1068   23.8284  -42.8809 C.ar      1 <1>         0.0000 
      6 C6         27.7105   23.7715  -42.7686 C.ar      1 <1>         0.0000 
      7 C7         27.1341   23.2994  -41.5827 C.ar      1 <1>         0.0000 
      8 O8         29.6766   24.3886  -44.0268 O.3       1 <1>         0.0000 
      9 C9         26.8448   24.2212  -43.9559 C.3       1 <1>         0.0000 
     10 N10        25.4036   23.9720  -43.7025 N.3       1 <1>         0.0000 
     11 C11        24.6356   23.2444  -44.7394 C.3       1 <1>         0.0000 
     12 C12        23.2963   22.7577  -44.1345 C.3       1 <1>         0.0000 
     13 N13        22.5503   23.9123  -43.5791 N.3       1 <1>         0.0000 
     14 C14        23.3181   24.6287  -42.5350 C.3       1 <1>         0.0000 
     15 C15        24.6593   25.1161  -43.1305 C.3       1 <1>         0.0000 
     16 C16        21.1321   23.6312  -43.2521 C.3       1 <1>         0.0000 
     17 C17        20.2440   23.6411  -44.5018 C.ar      1 <1>         0.0000 
     18 C18        20.6922   24.2056  -45.7020 C.ar      1 <1>         0.0000 
     19 C19        19.8517   24.2506  -46.8174 C.ar      1 <1>         0.0000 
     20 C20        18.5469   23.7573  -46.7344 C.ar      1 <1>         0.0000 
     21 C21        18.1069   23.1615  -45.5490 C.ar      1 <1>         0.0000 
     22 C22        18.9571   23.0947  -44.4411 C.ar      1 <1>         0.0000 
     23 O23        17.6864   23.8683  -47.8285 O.3       1 <1>         0.0000 
     24 C24        17.5498   22.6658  -48.5985 C.3       1 <1>         0.0000 
     25 H1         29.9569   22.4601  -39.8772 H         1 <1>         0.0000 
     26 H2         30.9909   23.3019  -41.9579 H         1 <1>         0.0000 
     27 H3         26.0575   23.2867  -41.4513 H         1 <1>         0.0000 
     28 H4         30.5811   24.6564  -43.9090 H         1 <1>         0.0000 
     29 H5         27.1916   23.6638  -44.8384 H         1 <1>         0.0000 
     30 H6         27.0330   25.2886  -44.1522 H         1 <1>         0.0000 
     31 H7         25.1988   22.3681  -45.1010 H         1 <1>         0.0000 
     32 H8         24.4386   23.9135  -45.5920 H         1 <1>         0.0000 
     33 H9         23.5084   22.0267  -43.3370 H         1 <1>         0.0000 
     34 H10        22.7065   22.2491  -44.9158 H         1 <1>         0.0000 
     35 H11        23.5050   23.9621  -41.6778 H         1 <1>         0.0000 
     36 H12        22.7696   25.5137  -42.1710 H         1 <1>         0.0000 
     37 H13        25.2455   25.6083  -42.3366 H         1 <1>         0.0000 
     38 H14        24.4590   25.8532  -43.9261 H         1 <1>         0.0000 
     39 H15        20.7125   24.4166  -42.6060 H         1 <1>         0.0000 
     40 H16        21.0502   22.6719  -42.7181 H         1 <1>         0.0000 
     41 H17        21.6908   24.6220  -45.7810 H         1 <1>         0.0000 
     42 H18        20.2067   24.6728  -47.7524 H         1 <1>         0.0000 
     43 H19        17.1012   22.7550  -45.4889 H         1 <1>         0.0000 
     44 H20        18.6074   22.6234  -43.5281 H         1 <1>         0.0000 
     45 H21        17.1385   21.8468  -47.9899 H         1 <1>         0.0000 
     46 H22        18.5210   22.3624  -49.0174 H         1 <1>         0.0000 
     47 H23        16.8569   22.8742  -49.4247 H         1 <1>         0.0000 
@<TRIPOS>BOND
     1    2    1 1    
     2    2    3 ar   
     3    3    4 ar   
     4    4    5 ar   
     5    5    6 ar   
     6    6    7 ar   
     7    2    7 ar   
     8    5    8 1    
     9    6    9 1    
    10    9   10 1    
    11   10   11 1    
    12   11   12 1    
    13   12   13 1    
    14   13   14 1    
    15   14   15 1    
    16   10   15 1    
    17   13   16 1    
    18   16   17 1    
    19   17   18 ar   
    20   18   19 ar   
    21   19   20 ar   
    22   20   21 ar   
    23   21   22 ar   
    24   17   22 ar   
    25   20   23 1    
    26   23   24 1    
    27    3   25 1    
    28    4   26 1    
    29    7   27 1    
    30    8   28 1    
    31    9   29 1    
    32    9   30 1    
    33   11   31 1    
    34   11   32 1    
    35   12   33 1    
    36   12   34 1    
    37   14   35 1    
    38   14   36 1    
    39   15   37 1    
    40   15   38 1    
    41   16   39 1    
    42   16   40 1    
    43   18   41 1    
    44   19   42 1    
    45   21   43 1    
    46   22   44 1    
    47   24   45 1    
    48   24   46 1    
    49   24   47 1    
@<TRIPOS>SUBSTRUCTURE
     1 ****        2 TEMP              0 ****  ****    0 ROOT 
@<TRIPOS>NORMAL
@<TRIPOS>FF_PBC
FORCE_FIELD_SETUP_FEATURE Force Field Setup information
v1.0  0 0.000000 0.000000 0.000000 0.000000 0.000000 0.000000 NONE 0 0 0 0 0 0 0 0 0 0 0 0 0
