#	Name:			PISM00098
#	Creating user name:	baoopengkun
#	Creation time:		Sun Dec 16 14:21:39 2018

#	Modifying user name:	baoopengkun
#	Modification time:	Sun Dec 16 14:23:52 2018

@<TRIPOS>MOLECULE
PISM00098
   37    38     1     1     0
SMALL
GAST_HUCK


@<TRIPOS>ATOM
      1 F1         -4.7125   18.6617    1.1552 F         1 <1>        -0.1823 
      2 C2         -4.4789   17.4400    0.6832 C.ar      1 <1>         0.1379 
      3 C3         -5.2535   16.3640    1.1209 C.ar      1 <1>        -0.0238 
      4 C4         -5.0171   15.0860    0.6075 C.ar      1 <1>        -0.0579 
      5 C5         -4.0079   14.8871   -0.3400 C.ar      1 <1>        -0.0453 
      6 C6         -3.1970   15.9538   -0.7503 C.ar      1 <1>         0.0553 
      7 C7         -3.4581   17.2344   -0.2479 C.ar      1 <1>        -0.0077 
      8 C8         -2.0503   15.7732   -1.7265 C.2       1 <1>         0.2421 
      9 O9         -1.7766   16.7337   -2.4281 O.2       1 <1>        -0.3649 
     10 N10        -1.3730   14.6600   -1.8197 N.pl3     1 <1>        -0.1800 
     11 N11        -0.3634   14.5667   -2.7197 N.2       1 <1>        -0.1987 
     12 C12         0.3584   13.5272   -2.8659 C.2       1 <1>         0.0247 
     13 C13         1.4658   13.5215   -3.8981 C.ar      1 <1>        -0.0357 
     14 C14         1.6986   14.6481   -4.6951 C.ar      1 <1>        -0.0706 
     15 C15         2.7269   14.6512   -5.6452 C.ar      1 <1>        -0.0228 
     16 C16         3.5265   13.5143   -5.8023 C.ar      1 <1>         0.1197 
     17 C17         3.2844   12.3797   -5.0199 C.ar      1 <1>         0.1147 
     18 C18         2.2671   12.3870   -4.0625 C.ar      1 <1>        -0.0394 
     19 O19         4.0685   11.2388   -5.2026 O.3       1 <1>        -0.3266 
     20 C20         3.4273   10.2091   -5.9733 C.3       1 <1>         0.0566 
     21 O21         4.5615   13.5205   -6.7422 O.3       1 <1>        -0.3391 
     22 C22         2.9969   15.8801   -6.5216 C.3       1 <1>        -0.0352 
     23 H1         -6.0352   16.5265    1.8556 H         1 <1>         0.0640 
     24 H2         -5.6211   14.2480    0.9434 H         1 <1>         0.0619 
     25 H3         -3.8752   13.8949   -0.7570 H         1 <1>         0.0636 
     26 H4         -2.8665   18.0836   -0.5734 H         1 <1>         0.0656 
     27 H5         -1.5896   13.8686   -1.1992 H         1 <1>         0.2308 
     28 H6          0.1973   12.6352   -2.2605 H         1 <1>         0.0781 
     29 H7          1.0749   15.5275   -4.5731 H         1 <1>         0.0447 
     30 H8          2.1072   11.5070   -3.4493 H         1 <1>         0.0460 
     31 H9          4.1265    9.3655   -6.0709 H         1 <1>         0.0572 
     32 H10         3.1753   10.5775   -6.9803 H         1 <1>         0.0572 
     33 H11         2.5117    9.8514   -5.4772 H         1 <1>         0.0572 
     34 H12         5.0864   12.7273   -6.6948 H         1 <1>         0.2430 
     35 H13         2.9084   15.5953   -7.5809 H         1 <1>         0.0365 
     36 H14         4.0188   16.2410   -6.3315 H         1 <1>         0.0365 
     37 H15         2.2904   16.6985   -6.3174 H         1 <1>         0.0365 
@<TRIPOS>BOND
     1    2    1 1    
     2    2    3 ar   
     3    3    4 ar   
     4    4    5 ar   
     5    5    6 ar   
     6    6    7 ar   
     7    2    7 ar   
     8    6    8 1    
     9    8    9 2    
    10    8   10 1    
    11   10   11 1    
    12   11   12 2    
    13   12   13 1    
    14   13   14 ar   
    15   14   15 ar   
    16   15   16 ar   
    17   16   17 ar   
    18   17   18 ar   
    19   13   18 ar   
    20   17   19 1    
    21   19   20 1    
    22   16   21 1    
    23   15   22 1    
    24    3   23 1    
    25    4   24 1    
    26    5   25 1    
    27    7   26 1    
    28   10   27 1    
    29   12   28 1    
    30   14   29 1    
    31   18   30 1    
    32   20   31 1    
    33   20   32 1    
    34   20   33 1    
    35   21   34 1    
    36   22   35 1    
    37   22   36 1    
    38   22   37 1    
@<TRIPOS>SUBSTRUCTURE
     1 ****        2 TEMP              0 ****  ****    0 ROOT 
@<TRIPOS>NORMAL
@<TRIPOS>FF_PBC
FORCE_FIELD_SETUP_FEATURE Force Field Setup information
v1.0  0 0.000000 0.000000 0.000000 0.000000 0.000000 0.000000 NONE 0 0 0 0 1 0 0 0 0 0 0 0 0
