#	Name:			PISM00904.1
#	Creating user name:	baoopengkun
#	Creation time:		Fri Dec 14 10:23:48 2018

#	Modifying user name:	baoopengkun
#	Modification time:	Fri Dec 14 10:29:11 2018

@<TRIPOS>MOLECULE
PISM00904.1
   39    41     1     1     0
SMALL
GAST_HUCK


@<TRIPOS>ATOM
      1 C1         22.6284   19.5560   -9.7969 C.ar      1 <1>        -0.0196 
      2 C2         22.7259   20.7410   -9.0871 C.ar      1 <1>        -0.0198 
      3 C3         22.5146   20.7759   -7.7087 C.ar      1 <1>        -0.0710 
      4 C4         22.1994   19.5750   -7.0616 C.ar      1 <1>        -0.0737 
      5 C5         22.0938   18.3724   -7.7777 C.ar      1 <1>        -0.0545 
      6 C6         22.3146   18.3542   -9.1616 C.ar      1 <1>        -0.0630 
      7 C7         23.0724   21.8647  -10.0501 C.3       1 <1>         0.0787 
      8 C8         22.9065   19.8367  -11.2644 C.3       1 <1>         0.0801 
      9 C9         21.7385   17.0677   -7.0516 C.3       1 <1>        -0.0036 
     10 C10        23.0383   16.3292   -6.6487 C.3       1 <1>         0.0414 
     11 N11        22.7016   15.0756   -5.9775 N.am      1 <1>        -0.2605 
     12 C12        22.2994   14.0122   -6.7033 C.2       1 <1>         0.3248 
     13 O13        22.2087   14.0249   -7.9197 O.2       1 <1>        -0.3773 
     14 O14        22.0004   12.9467   -5.9501 O.3       1 <1>        -0.2139 
     15 C15        21.6132   11.7885   -6.7089 C.3       1 <1>         0.2419 
     16 C16        20.4182   12.0286   -7.6019 C.2       1 <1>        -0.0022 
     17 C17        20.7199   11.7179   -8.8616 C.2       1 <1>         0.0291 
     18 C18        22.1115   11.2815   -8.7893 C.2       1 <1>         0.2494 
     19 O19        22.6656   11.3319   -7.5831 O.3       1 <1>        -0.2315 
     20 C20        19.8437   11.8113  -10.0802 C.3       1 <1>        -0.0323 
     21 O21        22.7274   10.8909   -9.7664 O.2       1 <1>        -0.3691 
     22 O22        22.6469   21.2601  -11.2941 O.3       1 <1>        -0.3585 
     23 H1         22.5936   21.7082   -7.1596 H         1 <1>         0.0521 
     24 H2         22.0369   19.5822   -5.9886 H         1 <1>         0.0482 
     25 H3         22.2474   17.4350   -9.7335 H         1 <1>         0.0478 
     26 H4         24.1588   22.0428  -10.0381 H         1 <1>         0.0698 
     27 H5         22.5259   22.7972   -9.8448 H         1 <1>         0.0698 
     28 H6         22.2389   19.2881  -11.9453 H         1 <1>         0.0710 
     29 H7         23.9601   19.6125  -11.4921 H         1 <1>         0.0710 
     30 H8         21.1311   16.4308   -7.7139 H         1 <1>         0.0432 
     31 H9         21.1392   17.2763   -6.1514 H         1 <1>         0.0432 
     32 H10        23.6302   16.9793   -5.9820 H         1 <1>         0.0540 
     33 H11        23.6486   16.1332   -7.5466 H         1 <1>         0.0540 
     34 H12        22.7435   15.0244   -4.9779 H         1 <1>         0.1869 
     35 H13        21.3749   10.9796   -6.0001 H         1 <1>         0.1194 
     36 H14        19.4548   12.4039   -7.2601 H         1 <1>         0.0704 
     37 H15        20.4642   11.9601  -10.9766 H         1 <1>         0.0347 
     38 H16        19.1461   12.6571   -9.9865 H         1 <1>         0.0347 
     39 H17        19.2699   10.8796  -10.1913 H         1 <1>         0.0347 
@<TRIPOS>BOND
     1    2    1 ar   
     2    2    3 ar   
     3    3    4 ar   
     4    4    5 ar   
     5    5    6 ar   
     6    1    6 ar   
     7    2    7 1    
     8    1    8 1    
     9    5    9 1    
    10    9   10 1    
    11   10   11 1    
    12   11   12 am   
    13   12   13 2    
    14   12   14 1    
    15   14   15 1    
    16   15   16 1    
    17   16   17 2    
    18   17   18 1    
    19   18   19 1    
    20   15   19 1    
    21   17   20 1    
    22   18   21 2    
    23    8   22 1    
    24    7   22 1    
    25    3   23 1    
    26    4   24 1    
    27    6   25 1    
    28    7   26 1    
    29    7   27 1    
    30    8   28 1    
    31    8   29 1    
    32    9   30 1    
    33    9   31 1    
    34   10   32 1    
    35   10   33 1    
    36   11   34 1    
    37   15   35 1    
    38   16   36 1    
    39   20   37 1    
    40   20   38 1    
    41   20   39 1    
@<TRIPOS>SUBSTRUCTURE
     1 ****        2 TEMP              0 ****  ****    0 ROOT 
@<TRIPOS>NORMAL
@<TRIPOS>FF_PBC
FORCE_FIELD_SETUP_FEATURE Force Field Setup information
v1.0  0 0.000000 0.000000 0.000000 0.000000 0.000000 0.000000 NONE 0 0 0 0 1 0 0 0 0 0 0 0 0
