#	Name:			PISM00094
#	Creating user name:	malab
#	Creation time:		Mon Apr 08 23:32:39 2019

#	Modifying user name:	malab
#	Modification time:	Mon Apr 08 23:34:41 2019

@<TRIPOS>MOLECULE
PISM00094
   44    45     1     1     0
SMALL
GAST_HUCK


@<TRIPOS>ATOM
      1 C1          3.9892    9.3178    7.0859 C.3       1 <1>        -0.0171 
      2 C2          2.8521    8.6687    7.9062 C.3       1 <1>         0.0577 
      3 C3          3.1853    7.1518    7.8686 C.3       1 <1>        -0.0169 
      4 C4          4.0968    6.9481    6.6217 C.3       1 <1>        -0.0144 
      5 C5          4.1274    8.3322    5.9019 C.3       1 <1>         0.0106 
      6 O6          1.6158    8.9428    7.2214 O.3       1 <1>        -0.3916 
      7 C7          5.3475    8.6225    4.9630 C.3       1 <1>         0.0985 
      8 C8          3.6858    5.7855    5.7369 C.2       1 <1>        -0.0949 
      9 C9          2.4792    5.6459    5.1660 C.2       1 <1>        -0.0984 
     10 C10         2.1994    4.5556    4.1406 C.3       1 <1>        -0.0364 
     11 C11         2.7596    5.1924    2.8408 C.3       1 <1>        -0.0438 
     12 C12         2.8563    4.4163    1.4995 C.3       1 <1>        -0.0211 
     13 C13         3.4089    5.3223    0.3326 C.3       1 <1>         0.0830 
     14 O14         4.5600    6.1459    0.6765 O.3       1 <1>        -0.2801 
     15 C15         4.2002    7.1045    1.5300 C.2       1 <1>         0.2336 
     16 O16         5.4134    6.9595    1.5240 O.2       1 <1>        -0.3745 
     17 C17         4.6854    8.0612    2.5698 C.2       1 <1>         0.0117 
     18 C18         5.1782    7.7095    3.7772 C.2       1 <1>        -0.0291 
     19 O19         5.3097    9.9941    4.5316 O.3       1 <1>        -0.3739 
     20 C20         3.8294    4.4374   -0.8682 C.3       1 <1>        -0.0345 
     21 H1          4.9088    9.3440    7.6913 H         1 <1>         0.0297 
     22 H2          3.7383   10.3418    6.7655 H         1 <1>         0.0297 
     23 H3          2.8089    9.0766    8.9327 H         1 <1>         0.0595 
     24 H4          2.2652    6.5492    7.8267 H         1 <1>         0.0312 
     25 H5          3.7272    6.8656    8.7862 H         1 <1>         0.0312 
     26 H6          5.1250    6.7604    6.9781 H         1 <1>         0.0430 
     27 H7          3.2102    8.4323    5.2947 H         1 <1>         0.0380 
     28 H8          0.8569    8.5625    7.6527 H         1 <1>         0.2098 
     29 H9          6.3219    8.3925    5.4285 H         1 <1>         0.0828 
     30 H10         4.4427    5.0273    5.5272 H         1 <1>         0.0453 
     31 H11         1.6886    6.3638    5.3868 H         1 <1>         0.0450 
     32 H12         1.1216    4.3457    4.0520 H         1 <1>         0.0388 
     33 H13         2.7262    3.6169    4.3777 H         1 <1>         0.0388 
     34 H14         3.8097    5.3697    3.0960 H         1 <1>         0.0286 
     35 H15         2.2118    6.1355    2.6720 H         1 <1>         0.0286 
     36 H16         1.8588    4.0321    1.2314 H         1 <1>         0.0295 
     37 H17         3.5222    3.5500    1.6485 H         1 <1>         0.0295 
     38 H18         2.5912    5.9780   -0.0216 H         1 <1>         0.0644 
     39 H19         4.5036    9.1158    2.3602 H         1 <1>         0.0485 
     40 H20         5.4480    6.6751    3.9739 H         1 <1>         0.0880 
     41 H21         5.9988   10.2209    3.9167 H         1 <1>         0.2143 
     42 H22         4.6715    3.7891   -0.5817 H         1 <1>         0.0258 
     43 H23         4.1511    5.0732   -1.7079 H         1 <1>         0.0258 
     44 H24         2.9905    3.8072   -1.2026 H         1 <1>         0.0258 
@<TRIPOS>BOND
     1    2    1 1    
     2    2    3 1    
     3    3    4 1    
     4    4    5 1    
     5    1    5 1    
     6    2    6 1    
     7    5    7 1    
     8    4    8 1    
     9    8    9 2    
    10    9   10 1    
    11   10   11 1    
    12   11   12 1    
    13   12   13 1    
    14   13   14 1    
    15   14   15 1    
    16   15   16 2    
    17   15   17 1    
    18   17   18 2    
    19    7   18 1    
    20    7   19 1    
    21   13   20 1    
    22    1   21 1    
    23    1   22 1    
    24    2   23 1    
    25    3   24 1    
    26    3   25 1    
    27    4   26 1    
    28    5   27 1    
    29    6   28 1    
    30    7   29 1    
    31    8   30 1    
    32    9   31 1    
    33   10   32 1    
    34   10   33 1    
    35   11   34 1    
    36   11   35 1    
    37   12   36 1    
    38   12   37 1    
    39   13   38 1    
    40   17   39 1    
    41   18   40 1    
    42   19   41 1    
    43   20   42 1    
    44   20   43 1    
    45   20   44 1    
@<TRIPOS>SUBSTRUCTURE
     1 ****        2 TEMP              0 ****  ****    0 ROOT 
@<TRIPOS>NORMAL
@<TRIPOS>FF_PBC
FORCE_FIELD_SETUP_FEATURE Force Field Setup information
v1.0  0 0.000000 0.000000 0.000000 0.000000 0.000000 0.000000 NONE 0 0 0 0 1 0 0 0 0 0 0 0 0
