#	Name:			PISM00873.1
#	Creating user name:	baoopengkun
#	Creation time:		Thu Dec 13 23:15:37 2018

#	Modifying user name:	baoopengkun
#	Modification time:	Thu Dec 13 23:56:26 2018

@<TRIPOS>MOLECULE
PISM00873.1
   24    25     1     1     0
SMALL
GAST_HUCK


@<TRIPOS>ATOM
      1 H2          1.7214    0.0494    1.5876 H         1 <1>         0.0551 
      2 C2          3.2904   -1.4042    1.8708 C.ar      1 <1>        -0.0538 
      3 C3          4.6019   -1.7657    1.5503 C.ar      1 <1>         0.0313 
      4 C4          5.3592   -0.9618    0.6939 C.ar      1 <1>        -0.0470 
      5 C5          4.8028    0.1997    0.1503 C.ar      1 <1>         0.0416 
      6 C6          3.4876    0.5566    0.4640 C.ar      1 <1>         0.1085 
      7 C7          2.7355   -0.2397    1.3321 C.ar      1 <1>        -0.0291 
      8 Br8         5.8069    1.2629   -0.9879 Br        1 <1>        -0.0579 
      9 O9          2.9279    1.7072   -0.0890 O.3       1 <1>        -0.2683 
     10 C10         2.0532    1.4677   -1.2010 C.3       1 <1>         0.2366 
     11 O11         1.6465    2.7518   -1.7132 O.3       1 <1>        -0.2312 
     12 C12         2.1801    2.8305   -2.9260 C.2       1 <1>         0.2495 
     13 C13         2.9091    1.6476   -3.3691 C.2       1 <1>         0.0292 
     14 C14         2.8109    0.8161   -2.3343 C.2       1 <1>        -0.0018 
     15 C15         3.5965    1.4136   -4.6862 C.3       1 <1>        -0.0323 
     16 O16         2.0558    3.8230   -3.6226 O.2       1 <1>        -0.3691 
     17 H1          2.7052   -2.0285    2.5385 H         1 <1>         0.0619 
     18 Cl18        5.2968   -3.2262    2.2225 Cl        1 <1>        -0.0803 
     19 H3          6.3790   -1.2414    0.4519 H         1 <1>         0.0623 
     20 H4          1.1643    0.8835   -0.9119 H         1 <1>         0.1201 
     21 H5          3.2284   -0.1896   -2.3074 H         1 <1>         0.0705 
     22 H6          3.3056    0.4342   -5.0943 H         1 <1>         0.0347 
     23 H7          4.6865    1.4341   -4.5378 H         1 <1>         0.0347 
     24 H8          3.3183    2.1973   -5.4067 H         1 <1>         0.0347 
@<TRIPOS>BOND
     1    7    1 1    
     2    3    2 ar   
     3    4    3 ar   
     4    5    4 ar   
     5    6    5 ar   
     6    6    7 ar   
     7    2    7 ar   
     8    5    8 1    
     9    6    9 1    
    10    9   10 1    
    11   10   11 1    
    12   11   12 1    
    13   12   13 1    
    14   13   14 2    
    15   10   14 1    
    16   13   15 1    
    17   12   16 2    
    18    2   17 1    
    19    3   18 1    
    20    4   19 1    
    21   10   20 1    
    22   14   21 1    
    23   15   22 1    
    24   15   23 1    
    25   15   24 1    
@<TRIPOS>SUBSTRUCTURE
     1 ****        2 TEMP              0 ****  ****    0 ROOT 
@<TRIPOS>NORMAL
@<TRIPOS>FF_PBC
FORCE_FIELD_SETUP_FEATURE Force Field Setup information
v1.0  0 0.000000 0.000000 0.000000 0.000000 0.000000 0.000000 NONE 0 0 0 0 1 0 0 0 0 0 0 0 0
