#	Name:			PISM00385
#	Creating user name:	baoopengkun
#	Creation time:		Sun Mar 31 16:15:39 2019

#	Modifying user name:	baoopengkun
#	Modification time:	Sun Mar 31 16:22:43 2019

@<TRIPOS>MOLECULE
PISM00385
   36    36     1     1     0
SMALL
GAST_HUCK


@<TRIPOS>ATOM
      1 C1         -2.7076    1.4716   -2.1098 C.3       1 <1>        -0.0427 
      2 C2         -3.0797    2.7728   -2.8780 C.3       1 <1>         0.0185 
      3 C3         -4.5553    3.0307   -2.7812 C.2       1 <1>         0.1468 
      4 C4         -5.3412    2.4767   -1.6690 C.2       1 <1>         0.0134 
      5 C5         -4.7734    1.7784   -0.6753 C.2       1 <1>        -0.0663 
      6 C6         -3.2732    1.5320   -0.6538 C.3       1 <1>         0.0371 
      7 C7         -3.3008    0.2380   -2.8616 C.3       1 <1>        -0.0711 
      8 C8         -1.1563    1.3306   -2.0811 C.3       1 <1>        -0.0711 
      9 O9         -5.1115    3.7036   -3.6342 O.2       1 <1>        -0.3648 
     10 O10        -2.9446    0.2740   -0.0330 O.3       1 <1>        -0.4650 
     11 C11        -2.6721    2.6869    0.1236 C.2       1 <1>        -0.0866 
     12 C12        -1.6715    2.5599    1.0050 C.2       1 <1>        -0.0209 
     13 C13        -1.1262    3.7105    1.7579 C.2       1 <1>         0.0138 
     14 H1         -2.7942    2.6763   -3.9372 H         1 <1>         0.0475 
     15 C15        -0.3528    3.5700    2.8431 C.2       1 <1>         0.0737 
     16 C16         0.1914    4.7246    3.5947 C.2       1 <1>         0.2908 
     17 O17         0.0607    5.8509    3.1480 O.2       1 <1>        -0.3340 
     18 O18         0.8270    4.5730    4.7635 O.3       1 <1>        -0.2884 
     19 C19        -5.5923    1.2255    0.4688 C.3       1 <1>        -0.0366 
     20 H2         -2.5578    3.6504   -2.4708 H         1 <1>         0.0475 
     21 H3         -6.4129    2.6642   -1.6936 H         1 <1>         0.0972 
     22 H4         -2.9301    0.1974   -3.8981 H         1 <1>         0.0221 
     23 H5         -4.3997    0.2712   -2.8998 H         1 <1>         0.0221 
     24 H6         -3.0098   -0.7001   -2.3637 H         1 <1>         0.0221 
     25 H7         -0.8578    0.4232   -1.5341 H         1 <1>         0.0221 
     26 H8         -0.6848    2.1962   -1.5932 H         1 <1>         0.0221 
     27 H9         -0.7550    1.2618   -3.1039 H         1 <1>         0.0221 
     28 H10        -3.1992    0.1936    0.8789 H         1 <1>         0.1805 
     29 H11        -3.0854    3.6830   -0.0463 H         1 <1>         0.0529 
     30 H12        -1.2353    1.5769    1.1848 H         1 <1>         0.1130 
     31 H13        -1.3745    4.7151    1.4105 H         1 <1>         0.0886 
     32 H14        -0.1131    2.5684    3.1969 H         1 <1>         0.1163 
     33 H15         0.8862    3.6810    5.0817 H         1 <1>         0.2523 
     34 H16        -6.6437    1.5425    0.4266 H         1 <1>         0.0416 
     35 H17        -5.1727    1.5771    1.4231 H         1 <1>         0.0416 
     36 H18        -5.5729    0.1262    0.4446 H         1 <1>         0.0416 
@<TRIPOS>BOND
     1    2    1 1    
     2    2    3 1    
     3    3    4 1    
     4    4    5 2    
     5    5    6 1    
     6    1    6 1    
     7    1    7 1    
     8    1    8 1    
     9    3    9 2    
    10    6   10 1    
    11    6   11 1    
    12   11   12 2    
    13   12   13 1    
    14    2   14 1    
    15   13   15 2    
    16   15   16 1    
    17   16   17 2    
    18   16   18 1    
    19    5   19 1    
    20    2   20 1    
    21    4   21 1    
    22    7   22 1    
    23    7   23 1    
    24    7   24 1    
    25    8   25 1    
    26    8   26 1    
    27    8   27 1    
    28   10   28 1    
    29   11   29 1    
    30   12   30 1    
    31   13   31 1    
    32   15   32 1    
    33   18   33 1    
    34   19   34 1    
    35   19   35 1    
    36   19   36 1    
@<TRIPOS>SUBSTRUCTURE
     1 ****        2 TEMP              0 ****  ****    0 ROOT 
@<TRIPOS>NORMAL
@<TRIPOS>FF_PBC
FORCE_FIELD_SETUP_FEATURE Force Field Setup information
v1.0  0 0.000000 0.000000 0.000000 0.000000 0.000000 0.000000 NONE 0 0 0 0 1 0 0 0 0 0 0 0 0
