#	Name:			PISM01052
#	Creating user name:	malab
#	Creation time:		Thu Jul 04 18:27:40 2019

#	Modifying user name:	malab
#	Modification time:	Thu Jul 04 18:31:28 2019

@<TRIPOS>MOLECULE
PISM01052
   48    49     1     1     0
SMALL
GAST_HUCK


@<TRIPOS>ATOM
      1 C1          2.5723    0.5347   31.0000 C.3       1 <1>        -0.1047 
      2 C2          3.2371   -0.4449   29.9865 C.3       1 <1>        -0.1069 
      3 C3          2.3635   -0.6302   28.7268 C.3       1 <1>        -0.0400 
      4 C4          1.0155   -1.2495   29.1616 C.3       1 <1>         0.0358 
      5 C5          0.3945   -0.5631   30.3580 C.2       1 <1>         0.0186 
      6 C6          1.0922    0.2404   31.1799 C.2       1 <1>        -0.0707 
      7 C7          3.3301    0.4022   32.3556 C.3       1 <1>        -0.1237 
      8 C8          2.6841    2.0112   30.5131 C.3       1 <1>        -0.1237 
      9 H9          2.1979    0.3321   28.2200 H         1 <1>         0.0307 
     10 C10         0.4051    0.8952   32.3108 C.2       1 <1>        -0.0859 
     11 C11        -0.4389    1.9159   32.1114 C.2       1 <1>        -0.0784 
     12 C12        -1.1812    2.6316   33.1771 C.2       1 <1>        -0.0298 
     13 C13        -1.0779   -0.8582   30.5647 C.3       1 <1>         0.0262 
     14 H14        -1.6605   -0.3071   29.8116 H         1 <1>         0.0691 
     15 C15        -1.8034    3.7884   32.9009 C.2       1 <1>         0.0747 
     16 C16        -1.2330    2.0422   34.5704 C.3       1 <1>        -0.0414 
     17 O17        -1.7469    4.2991   31.6607 O.3       1 <1>        -0.2702 
     18 C18        -2.4306    5.5550   31.5198 C.3       1 <1>         0.2396 
     19 O19        -3.8297    5.4012   31.8356 O.3       1 <1>        -0.2302 
     20 C20        -4.4725    5.6369   30.6985 C.2       1 <1>         0.2496 
     21 O21        -5.6871    5.5717   30.6202 O.2       1 <1>        -0.3691 
     22 C22        -3.6290    5.9832   29.5600 C.2       1 <1>         0.0293 
     23 C23        -2.3964    5.9401   30.0616 C.2       1 <1>        -0.0006 
     24 C24        -4.0523    6.3230   28.1570 C.3       1 <1>        -0.0323 
     25 H1          3.3669   -1.4352   30.4538 H         1 <1>         0.0053 
     26 H2          4.2359   -0.0794   29.6972 H         1 <1>         0.0053 
     27 H3          2.8684   -1.3004   28.0104 H         1 <1>         0.0307 
     28 H4          1.1722   -2.3048   29.4372 H         1 <1>         0.0726 
     29 H5          0.3273   -1.2176   28.3014 H         1 <1>         0.0726 
     30 H6          3.1660   -0.5968   32.7885 H         1 <1>         0.0013 
     31 H7          2.9970    1.1529   33.0881 H         1 <1>         0.0013 
     32 H8          4.4116    0.5427   32.2037 H         1 <1>         0.0013 
     33 H10         3.7321    2.2714   30.2999 H         1 <1>         0.0013 
     34 H11         2.3154    2.7026   31.2863 H         1 <1>         0.0013 
     35 H12         2.0885    2.1904   29.6071 H         1 <1>         0.0013 
     36 H13         0.6199    0.5117   33.3064 H         1 <1>         0.0445 
     37 H15        -0.5737    2.2332   31.0764 H         1 <1>         0.0547 
     38 H16        -1.4573   -0.5867   31.5599 H         1 <1>         0.0691 
     39 H17        -1.2609   -1.9352   30.4328 H         1 <1>         0.0691 
     40 H18        -2.3470    4.2983   33.6998 H         1 <1>         0.1069 
     41 H19        -1.9726    2.5327   35.2213 H         1 <1>         0.0329 
     42 H20        -0.2432    2.1398   35.0412 H         1 <1>         0.0329 
     43 H21        -1.4999    0.9762   34.5112 H         1 <1>         0.0329 
     44 H22        -1.9747    6.3488   32.1355 H         1 <1>         0.1215 
     45 H23        -1.4856    6.1472   29.5012 H         1 <1>         0.0706 
     46 H24        -3.4587    7.1673   27.7756 H         1 <1>         0.0347 
     47 H25        -5.1172    6.5998   28.1386 H         1 <1>         0.0347 
     48 H26        -3.8978    5.4497   27.5062 H         1 <1>         0.0347 
@<TRIPOS>BOND
     1    2    1 1    
     2    2    3 1    
     3    3    4 1    
     4    4    5 1    
     5    5    6 2    
     6    1    6 1    
     7    1    7 1    
     8    1    8 1    
     9    3    9 1    
    10    6   10 1    
    11   10   11 2    
    12   11   12 1    
    13    5   13 1    
    14   13   14 1    
    15   12   15 2    
    16   12   16 1    
    17   15   17 1    
    18   17   18 1    
    19   18   19 1    
    20   19   20 1    
    21   20   21 2    
    22   20   22 1    
    23   22   23 2    
    24   18   23 1    
    25   22   24 1    
    26    2   25 1    
    27    2   26 1    
    28    3   27 1    
    29    4   28 1    
    30    4   29 1    
    31    7   30 1    
    32    7   31 1    
    33    7   32 1    
    34    8   33 1    
    35    8   34 1    
    36    8   35 1    
    37   10   36 1    
    38   11   37 1    
    39   13   38 1    
    40   13   39 1    
    41   15   40 1    
    42   16   41 1    
    43   16   42 1    
    44   16   43 1    
    45   18   44 1    
    46   23   45 1    
    47   24   46 1    
    48   24   47 1    
    49   24   48 1    
@<TRIPOS>SUBSTRUCTURE
     1 ****        2 TEMP              0 ****  ****    0 ROOT 
@<TRIPOS>NORMAL
@<TRIPOS>FF_PBC
FORCE_FIELD_SETUP_FEATURE Force Field Setup information
v1.0  0 0.000000 0.000000 0.000000 0.000000 0.000000 0.000000 NONE 0 0 0 0 1 0 0 0 0 0 0 0 0
