#	Name:			PISM00595
#	Creating user name:	baoopengkun
#	Creation time:		Mon Dec 10 11:55:29 2018

#	Modifying user name:	baoopengkun
#	Modification time:	Mon Dec 10 11:55:46 2018

@<TRIPOS>MOLECULE
PISM00595
   42    44     1     2     0
SMALL
GAST_HUCK


@<TRIPOS>ATOM
      1 C1         -2.2437   11.5260   -0.4629 C.ar      1 <1>        -0.0348 
      2 C2         -1.6043   11.1300    0.7151 C.ar      1 <1>        -0.0180 
      3 C3         -1.8511   11.8152    1.9077 C.ar      1 <1>         0.0714 
      4 C4         -2.7391   12.8945    1.9216 C.ar      1 <1>        -0.0180 
      5 C5         -3.3794   13.2896    0.7433 C.ar      1 <1>        -0.0348 
      6 C6         -3.1301   12.6080   -0.4520 C.ar      1 <1>         0.0068 
      7 C7         -3.8254   13.0331   -1.7515 C.3       1 <1>         0.1920 
      8 C8         -5.1310   12.2287   -1.9320 C.3       1 <1>         0.1073 
      9 N9         -4.8821   10.8090   -1.7230 N.pl3     1 <1>        -0.1814 
     10 N10        -4.4982    9.9032   -2.6655 N.2       1 <1>        -0.1908 
     11 C11        -4.3677    8.7167   -2.2002 C.2       1 <1>         0.0618 
     12 N12        -4.7217    8.9267   -0.8234 N.2       1 <1>        -0.2870 
     13 C13        -5.0071   10.1317   -0.6224 C.2       1 <1>         0.1270 
     14 O14        -4.0663   14.4440   -1.8110 O.3       1 <1>        -0.3815 
     15 C15        -2.8027   15.0736   -2.0609 C.3       1 <1>         0.0647 
     16 C16        -2.0024   13.9682   -2.7991 C.3       1 <1>         0.0728 
     17 O17        -2.9572   12.9042   -2.8823 O.3       1 <1>        -0.3785 
     18 Cl18       -1.0485   11.3215    3.3844 Cl        1 <1>        -0.0420 
     19 H1         -2.0551   10.9895   -1.3884 H         1 <1>         0.0849 
     20 H2         -0.9168   10.2903    0.7051 H         1 <1>         0.0703 
     21 H3         -2.9302   13.4246    2.8492 H         1 <1>         0.0703 
     22 H4         -4.0716   14.1259    0.7574 H         1 <1>         0.0849 
     23 H5         -5.5111   12.3926   -2.9512 H         1 <1>         0.0595 
     24 H6         -5.8797   12.5962   -1.2141 H         1 <1>         0.0595 
     25 H7         -4.0713    7.8018   -2.7109 H         1 <1>         0.0863 
     26 H8         -5.3111   10.5317    0.3442 H         1 <1>         0.1361 
     27 H11        -2.3236   15.3428   -1.1056 H         1 <1>         0.0575 
     28 C28        -1.5350   14.3707   -4.2204 C.3       1 <1>        -0.0254 
     29 H9         -2.9595   15.9864   -2.6552 H         1 <1>         0.0575 
     30 H10        -1.1439   13.6407   -2.1876 H         1 <1>         0.0608 
     31 C31        -0.3433   13.5868   -6.3524 C.3       1 <1>        -0.0558 
     32 H13        -1.4764   12.3271   -4.9784 H         1 <1>         0.0266 
     33 H14         0.0804   12.9076   -4.3227 H         1 <1>         0.0266 
     34 C34        -0.7997   13.1958   -4.9206 C.3       1 <1>        -0.0509 
     35 H15        -0.8630   15.2409   -4.1460 H         1 <1>         0.0290 
     36 H16        -2.4182   14.6577   -4.8138 H         1 <1>         0.0290 
     37 C37         0.3897   12.4114   -7.0501 C.3       1 <1>        -0.0653 
     38 H12         0.3349   14.4548   -6.2998 H         1 <1>         0.0263 
     39 H17        -1.2222   13.8713   -6.9548 H         1 <1>         0.0263 
     40 H18         0.7031   12.7079   -8.0636 H         1 <1>         0.0230 
     41 H19        -0.2757   11.5377   -7.1310 H         1 <1>         0.0230 
     42 H20         1.2847   12.1224   -6.4773 H         1 <1>         0.0230 
@<TRIPOS>BOND
     1    1    2 ar   
     2    2    3 ar   
     3    4    3 ar   
     4    5    4 ar   
     5    6    5 ar   
     6    6    1 ar   
     7    7    6 1    
     8    7    8 1    
     9    8    9 1    
    10    9   10 1    
    11   10   11 2    
    12   12   11 1    
    13   13   12 2    
    14    9   13 1    
    15    7   14 1    
    16   15   14 1    
    17   16   15 1    
    18   16   17 1    
    19   17    7 1    
    20    3   18 1    
    21    1   19 1    
    22    2   20 1    
    23    4   21 1    
    24    5   22 1    
    25    8   23 1    
    26    8   24 1    
    27   11   25 1    
    28   13   26 1    
    29   15   27 1    
    30   28   16 1    
    31   15   29 1    
    32   16   30 1    
    33   34   31 1    
    34   34   32 1    
    35   34   33 1    
    36   28   34 1    
    37   28   35 1    
    38   28   36 1    
    39   31   37 1    
    40   31   38 1    
    41   31   39 1    
    42   37   40 1    
    43   37   41 1    
    44   37   42 1    
@<TRIPOS>SUBSTRUCTURE
     1 ****        2 TEMP              0 ****  ****    0 ROOT 
@<TRIPOS>NORMAL
@<TRIPOS>FF_PBC
FORCE_FIELD_SETUP_FEATURE Force Field Setup information
v1.0  0 0.000000 0.000000 0.000000 0.000000 0.000000 0.000000 NONE 0 0 0 0 1 0 0 0 0 0 0 0 0
@<TRIPOS>RENDERING_ATTRS
ANTIALIASED_LINES 
*
