#	Name:			PISM00726
#	Creating user name:	baoopengkun
#	Creation time:		Sun Jan 20 21:58:07 2019

#	Modifying user name:	baoopengkun
#	Modification time:	Sun Jan 20 22:08:45 2019

@<TRIPOS>MOLECULE
PISM00726
   83    86     1     1     0
SMALL
GAST_HUCK


@<TRIPOS>ATOM
      1 C1         -5.7282    8.3193   -1.1989 C.3       1 <1>        -0.0163 
      2 C2         -7.0472    7.5197   -1.0034 C.3       1 <1>         0.0819 
      3 C3         -7.0945    6.8436    0.3965 C.3       1 <1>         0.0835 
      4 C4         -6.8797    7.8945    1.5203 C.3       1 <1>        -0.0028 
      5 C5         -5.5246    8.6228    1.2916 C.3       1 <1>         0.0681 
      6 C6         -5.4507    9.3762   -0.0818 C.3       1 <1>        -0.0055 
      7 C7         -4.0332   10.0589   -0.2508 C.3       1 <1>        -0.0276 
      8 C8         -2.8531    9.2355    0.3626 C.3       1 <1>        -0.0063 
      9 C9         -2.8425    9.3461    1.9274 C.3       1 <1>         0.0801 
     10 O10        -3.9336   10.0363    2.5826 O.3       1 <1>        -0.2763 
     11 C11        -5.1864    9.5841    2.4017 C.2       1 <1>         0.2374 
     12 O12        -6.0658    9.9852    3.1454 O.2       1 <1>        -0.3701 
     13 C13        -3.6725   10.5066   -1.7009 C.3       1 <1>        -0.0487 
     14 C14        -2.4286   11.4558   -1.7187 C.3       1 <1>        -0.0468 
     15 C15        -1.2623   11.0354   -0.7531 C.3       1 <1>        -0.0257 
     16 C16        -1.4996    9.5498   -0.3662 C.3       1 <1>        -0.0298 
     17 C17        -0.1699    9.0492    0.2486 C.3       1 <1>        -0.0491 
     18 C18         0.9040    9.8828   -0.5096 C.3       1 <1>        -0.0491 
     19 C19         0.1582   10.9154   -1.4178 C.3       1 <1>        -0.0304 
     20 O20        -7.1088    6.5383   -2.0573 O.3       1 <1>        -0.3892 
     21 O21        -6.0713    5.8305    0.4571 O.3       1 <1>        -0.3891 
     22 C22         5.5396   12.3721   -0.9581 C.3       1 <1>         0.0655 
     23 C23        -6.5354   10.5101   -0.1443 C.3       1 <1>        -0.0568 
     24 C24        -1.1978   11.9723    0.4968 C.3       1 <1>        -0.0590 
     25 C25         0.9993   12.2196   -1.6757 C.3       1 <1>        -0.0120 
     26 C26         2.4196   11.9178   -2.2802 C.3       1 <1>         0.0842 
     27 C27         3.4014   13.1414   -2.2550 C.3       1 <1>         0.0864 
     28 C28         4.9016   12.6812   -2.3637 C.3       1 <1>         0.0130 
     29 O29         4.5202   11.7810   -0.1297 O.3       1 <1>        -0.3888 
     30 C30         6.7091   11.3484   -1.0723 C.3       1 <1>        -0.0360 
     31 C31         6.0495   13.6576   -0.2401 C.3       1 <1>        -0.0360 
     32 C32         0.2356   13.2410   -2.5663 C.3       1 <1>        -0.0597 
     33 O33         2.3563   11.4399   -3.6409 O.3       1 <1>        -0.3890 
     34 O34         3.0280   14.0350   -3.3264 O.3       1 <1>        -0.3889 
     35 C35         5.7731   13.6510   -3.2191 C.3       1 <1>        -0.0574 
     36 H1         -5.7887    8.8068   -2.1842 H         1 <1>         0.0298 
     37 H2         -4.9056    7.5894   -1.2367 H         1 <1>         0.0298 
     38 H3         -7.9195    8.1836   -1.1216 H         1 <1>         0.0619 
     39 H4         -8.0826    6.3638    0.5200 H         1 <1>         0.0621 
     40 H5         -6.8531    7.3733    2.4923 H         1 <1>         0.0319 
     41 H6         -7.7275    8.5914    1.5698 H         1 <1>         0.0319 
     42 H7         -4.8126    7.7911    1.3510 H         1 <1>         0.0560 
     43 H8         -4.0709   11.0060    0.3051 H         1 <1>         0.0311 
     44 H9         -3.0053    8.1723    0.1135 H         1 <1>         0.0332 
     45 H10        -2.0064    9.9701    2.2594 H         1 <1>         0.0616 
     46 H11        -2.6919    8.3595    2.3972 H         1 <1>         0.0616 
     47 H12        -4.4990   11.0487   -2.1840 H         1 <1>         0.0268 
     48 H13        -3.4874    9.6163   -2.3222 H         1 <1>         0.0268 
     49 H14        -2.7836   12.4628   -1.4448 H         1 <1>         0.0271 
     50 H15        -2.0828   11.5081   -2.7633 H         1 <1>         0.0271 
     51 H16        -1.5289    9.0013   -1.3278 H         1 <1>         0.0310 
     52 H17        -0.0401    7.9620    0.1087 H         1 <1>         0.0268 
     53 H18        -0.0910    9.2447    1.3267 H         1 <1>         0.0268 
     54 H19         1.5450    9.2174   -1.1126 H         1 <1>         0.0268 
     55 H20         1.5469   10.3986    0.2236 H         1 <1>         0.0268 
     56 H21         0.0030   10.4376   -2.3984 H         1 <1>         0.0310 
     57 H22        -7.8798    5.9818   -2.0133 H         1 <1>         0.2099 
     58 H23        -6.0778    5.3295    1.2670 H         1 <1>         0.2099 
     59 H24        -7.5666   10.1603   -0.0363 H         1 <1>         0.0237 
     60 H25        -6.5035   11.0438   -1.1026 H         1 <1>         0.0237 
     61 H26        -6.3762   11.2513    0.6535 H         1 <1>         0.0237 
     62 H27        -2.1428   11.9923    1.0510 H         1 <1>         0.0235 
     63 H28        -1.0033   13.0109    0.1971 H         1 <1>         0.0235 
     64 H29        -0.4023   11.6766    1.1945 H         1 <1>         0.0235 
     65 H30         1.1714   12.6883   -0.6941 H         1 <1>         0.0327 
     66 H31         2.8857   11.1251   -1.6801 H         1 <1>         0.0622 
     67 H32         3.2599   13.6777   -1.3022 H         1 <1>         0.0623 
     68 H33         4.8923   11.7419   -2.9420 H         1 <1>         0.0351 
     69 H34         4.8131   11.5383    0.7430 H         1 <1>         0.2101 
     70 H35         7.1213   11.1233   -0.0768 H         1 <1>         0.0257 
     71 H36         7.5300   11.7292   -1.6954 H         1 <1>         0.0257 
     72 H37         6.3456   10.4053   -1.5080 H         1 <1>         0.0257 
     73 H38         5.2581   14.4186   -0.1827 H         1 <1>         0.0257 
     74 H39         6.9180   14.0882   -0.7594 H         1 <1>         0.0257 
     75 H40         6.3678   13.4231    0.7871 H         1 <1>         0.0257 
     76 H41         0.0942   12.8335   -3.5787 H         1 <1>         0.0233 
     77 H42         0.7771   14.1924   -2.6418 H         1 <1>         0.0233 
     78 H43        -0.7452   13.4950   -2.1507 H         1 <1>         0.0233 
     79 H44         1.8803   10.6258   -3.7548 H         1 <1>         0.2099 
     80 H45         3.4313   14.8956   -3.2890 H         1 <1>         0.2099 
     81 H46         6.8142   13.3062   -3.2879 H         1 <1>         0.0234 
     82 H47         5.7742   14.6673   -2.7989 H         1 <1>         0.0234 
     83 H48         5.3854   13.7055   -4.2490 H         1 <1>         0.0234 
@<TRIPOS>BOND
     1    2    1 1    
     2    2    3 1    
     3    3    4 1    
     4    4    5 1    
     5    6    5 1    
     6    1    6 1    
     7    6    7 1    
     8    7    8 1    
     9    8    9 1    
    10   10    9 1    
    11   11   10 1    
    12   11   12 2    
    13    5   11 1    
    14    7   13 1    
    15   13   14 1    
    16   14   15 1    
    17   16   15 1    
    18    8   16 1    
    19   16   17 1    
    20   17   18 1    
    21   19   18 1    
    22   15   19 1    
    23    2   20 1    
    24    3   21 1    
    25   28   22 1    
    26    6   23 1    
    27   15   24 1    
    28   19   25 1    
    29   25   26 1    
    30   26   27 1    
    31   27   28 1    
    32   22   29 1    
    33   22   30 1    
    34   22   31 1    
    35   25   32 1    
    36   26   33 1    
    37   27   34 1    
    38   28   35 1    
    39    1   36 1    
    40    1   37 1    
    41    2   38 1    
    42    3   39 1    
    43    4   40 1    
    44    4   41 1    
    45    5   42 1    
    46    7   43 1    
    47    8   44 1    
    48    9   45 1    
    49    9   46 1    
    50   13   47 1    
    51   13   48 1    
    52   14   49 1    
    53   14   50 1    
    54   16   51 1    
    55   17   52 1    
    56   17   53 1    
    57   18   54 1    
    58   18   55 1    
    59   19   56 1    
    60   20   57 1    
    61   21   58 1    
    62   23   59 1    
    63   23   60 1    
    64   23   61 1    
    65   24   62 1    
    66   24   63 1    
    67   24   64 1    
    68   25   65 1    
    69   26   66 1    
    70   27   67 1    
    71   28   68 1    
    72   29   69 1    
    73   30   70 1    
    74   30   71 1    
    75   30   72 1    
    76   31   73 1    
    77   31   74 1    
    78   31   75 1    
    79   32   76 1    
    80   32   77 1    
    81   32   78 1    
    82   33   79 1    
    83   34   80 1    
    84   35   81 1    
    85   35   82 1    
    86   35   83 1    
@<TRIPOS>SUBSTRUCTURE
     1 ****        2 TEMP              0 ****  ****    0 ROOT 
@<TRIPOS>NORMAL
@<TRIPOS>FF_PBC
FORCE_FIELD_SETUP_FEATURE Force Field Setup information
v1.0  0 0.000000 0.000000 0.000000 0.000000 0.000000 0.000000 NONE 0 0 0 0 1 0 0 0 0 0 0 0 0
