#	Name:			PISM00135
#	Creating user name:	malab
#	Creation time:		Mon Apr 08 23:42:09 2019

#	Modifying user name:	malab
#	Modification time:	Mon Apr 08 23:44:11 2019

@<TRIPOS>MOLECULE
PISM00135
   51    54     1     1     0
SMALL
GAST_HUCK


@<TRIPOS>ATOM
      1 C1         -0.2957    0.3751   -6.2675 C.ar      1 <1>        -0.0575 
      2 C2          0.3794    0.3778   -7.4914 C.ar      1 <1>        -0.0567 
      3 C3         -0.2888   -0.0081   -8.6568 C.ar      1 <1>        -0.0414 
      4 C4         -1.6244   -0.4178   -8.5887 C.ar      1 <1>         0.0643 
      5 C5         -2.2790   -0.4876   -7.3587 C.ar      1 <1>         0.0171 
      6 C6         -1.6312   -0.0329   -6.2042 C.ar      1 <1>        -0.0479 
      7 C7         -2.4160   -0.7878   -9.8214 C.2       1 <1>         0.2403 
      8 O8         -1.8749   -0.6892  -10.9114 O.2       1 <1>        -0.3805 
      9 N9         -3.6519   -1.1935   -9.6848 N.pl3     1 <1>        -0.1630 
     10 C10        -4.4319   -1.5413  -10.8684 C.3       1 <1>         0.0567 
     11 N11        -4.2493   -1.3226   -8.4740 N.2       1 <1>        -0.1772 
     12 C12        -3.6837   -1.0485   -7.3662 C.2       1 <1>         0.0803 
     13 C13        -4.4512   -1.3002   -6.0872 C.ar      1 <1>        -0.0109 
     14 C14        -3.8517   -1.9635   -5.0111 C.ar      1 <1>        -0.0605 
     15 C15        -4.5380   -2.1082   -3.8023 C.ar      1 <1>        -0.0310 
     16 C16        -5.8414   -1.6197   -3.6778 C.ar      1 <1>         0.0961 
     17 C17        -6.4721   -1.0305   -4.7769 C.ar      1 <1>        -0.0310 
     18 C18        -5.7788   -0.8740   -5.9806 C.ar      1 <1>        -0.0605 
     19 O19        -6.5109   -1.7179   -2.4574 O.3       1 <1>        -0.2964 
     20 C20        -6.3520   -0.5575   -1.6217 C.3       1 <1>         0.1596 
     21 C21        -7.0856   -0.7550   -0.3154 C.2       1 <1>         0.2095 
     22 O22        -7.7892   -1.7511   -0.2486 O.2       1 <1>        -0.3939 
     23 N23        -6.9686    0.1169    0.7294 N.am      1 <1>        -0.2710 
     24 C24        -6.0565    1.2652    0.6475 C.3       1 <1>         0.0339 
     25 C25        -6.5716    2.4908    1.4441 C.3       1 <1>        -0.0325 
     26 C26        -6.9919    2.0735    2.8725 C.3       1 <1>        -0.0494 
     27 C27        -8.1215    1.0219    2.7695 C.3       1 <1>        -0.0325 
     28 C28        -7.6237   -0.2259    1.9974 C.3       1 <1>         0.0339 
     29 H1          0.2182    0.6925   -5.3653 H         1 <1>         0.0650 
     30 H2          1.4207    0.6820   -7.5374 H         1 <1>         0.0625 
     31 H3          0.2323    0.0136   -9.6087 H         1 <1>         0.0667 
     32 H4         -2.1519    0.0177   -5.2551 H         1 <1>         0.0631 
     33 H5         -4.5277   -0.6632  -11.5251 H         1 <1>         0.0557 
     34 H6         -5.4410   -1.8744  -10.5824 H         1 <1>         0.0557 
     35 H7         -3.9399   -2.3559  -11.4218 H         1 <1>         0.0557 
     36 H8         -2.8524   -2.3733   -5.1129 H         1 <1>         0.0598 
     37 Br37       -3.7192   -2.9468   -2.3676 Br        1 <1>         0.0548 
     38 H10        -7.4998   -0.6923   -4.6917 H         1 <1>         0.0548 
     39 H11        -6.2724   -0.4152   -6.8313 H         1 <1>         0.0598 
     40 H12        -6.7675    0.3175   -2.1467 H         1 <1>         0.0860 
     41 H13        -5.2773   -0.4101   -1.4280 H         1 <1>         0.0860 
     42 H14        -5.8903    1.6339   -0.3754 H         1 <1>         0.0522 
     43 H15        -5.0846    0.9476    1.0577 H         1 <1>         0.0522 
     44 H16        -7.4415    2.9252    0.9227 H         1 <1>         0.0285 
     45 H17        -5.7846    3.2624    1.4954 H         1 <1>         0.0285 
     46 H18        -7.3510    2.9561    3.4284 H         1 <1>         0.0267 
     47 H19        -6.1285    1.6519    3.4130 H         1 <1>         0.0267 
     48 H20        -8.4551    0.7325    3.7804 H         1 <1>         0.0285 
     49 H21        -8.9826    1.4600    2.2377 H         1 <1>         0.0285 
     50 H22        -8.4955   -0.8878    1.8656 H         1 <1>         0.0522 
     51 H23        -6.8867   -0.7606    2.6176 H         1 <1>         0.0522 
@<TRIPOS>BOND
     1    2    1 ar   
     2    2    3 ar   
     3    3    4 ar   
     4    4    5 ar   
     5    5    6 ar   
     6    1    6 ar   
     7    4    7 1    
     8    7    8 2    
     9    7    9 1    
    10    9   10 1    
    11    9   11 1    
    12   11   12 2    
    13    5   12 1    
    14   12   13 1    
    15   13   14 ar   
    16   14   15 ar   
    17   15   16 ar   
    18   16   17 ar   
    19   17   18 ar   
    20   13   18 ar   
    21   16   19 1    
    22   19   20 1    
    23   20   21 1    
    24   21   22 2    
    25   21   23 am   
    26   23   24 1    
    27   24   25 1    
    28   25   26 1    
    29   26   27 1    
    30   27   28 1    
    31   23   28 1    
    32    1   29 1    
    33    2   30 1    
    34    3   31 1    
    35    6   32 1    
    36   10   33 1    
    37   10   34 1    
    38   10   35 1    
    39   14   36 1    
    40   15   37 1    
    41   17   38 1    
    42   18   39 1    
    43   20   40 1    
    44   20   41 1    
    45   24   42 1    
    46   24   43 1    
    47   25   44 1    
    48   25   45 1    
    49   26   46 1    
    50   26   47 1    
    51   27   48 1    
    52   27   49 1    
    53   28   50 1    
    54   28   51 1    
@<TRIPOS>SUBSTRUCTURE
     1 ****        2 TEMP              0 ****  ****    0 ROOT 
@<TRIPOS>NORMAL
@<TRIPOS>FF_PBC
FORCE_FIELD_SETUP_FEATURE Force Field Setup information
v1.0  0 0.000000 0.000000 0.000000 0.000000 0.000000 0.000000 NONE 0 0 0 0 0 0 0 0 0 0 0 0 0
