#	Name:			PISM01014.1
#	Creating user name:	malab
#	Creation time:		Mon Jul 01 22:14:48 2019

#	Modifying user name:	malab
#	Modification time:	Mon Jul 01 22:17:27 2019

@<TRIPOS>MOLECULE
PISM01014.1
   34    36     1     1     0
SMALL
GAST_HUCK


@<TRIPOS>ATOM
      1 C1          8.7903   17.7789   29.6328 C.ar      1 <1>        -0.0443 
      2 C2          8.9074   19.1524   29.3991 C.ar      1 <1>        -0.0737 
      3 C3          8.7068   19.6635   28.1145 C.ar      1 <1>        -0.0751 
      4 C4          8.4011   18.7943   27.0644 C.ar      1 <1>        -0.0737 
      5 C5          8.3055   17.4193   27.2986 C.ar      1 <1>        -0.0443 
      6 C6          8.4922   16.8981   28.5853 C.ar      1 <1>         0.0403 
      7 N7          8.3878   15.5616   28.8123 N.pl3     1 <1>        -0.3050 
      8 C8          9.3167   14.8877   29.7185 C.3       1 <1>         0.0472 
      9 C9          9.4312   13.3829   29.3672 C.3       1 <1>         0.0561 
     10 N10         8.0918   12.7952   29.4568 N.am      1 <1>        -0.2386 
     11 C11         6.9280   13.5578   29.0044 C.3       1 <1>         0.0561 
     12 C12         7.3630   14.7680   28.1358 C.3       1 <1>         0.0472 
     13 C13         7.9517   11.5382   29.9697 C.2       1 <1>         0.3643 
     14 O14         8.9572   10.8915   30.2198 O.2       1 <1>        -0.3614 
     15 N15         6.7934   10.9794   30.2185 N.pl3     1 <1>        -0.0186 
     16 N16         5.5483   11.4814   30.0750 N.2       1 <1>        -0.1530 
     17 C17         4.6895   10.6238   30.4491 C.2       1 <1>         0.0399 
     18 C18         5.4516    9.4418   30.8841 C.2       1 <1>         0.0399 
     19 N19         6.6773    9.7301   30.7185 N.2       1 <1>        -0.1530 
     20 H1          8.9281   17.4080   30.6420 H         1 <1>         0.0515 
     21 H2          9.1525   19.8237   30.2167 H         1 <1>         0.0583 
     22 H3          8.7883   20.7309   27.9332 H         1 <1>         0.0505 
     23 H4          8.2400   19.1880   26.0653 H         1 <1>         0.0583 
     24 H5          8.0915   16.7613   26.4639 H         1 <1>         0.0515 
     25 H6          8.9378   14.9723   30.7498 H         1 <1>         0.0533 
     26 H7         10.3156   15.3526   29.6633 H         1 <1>         0.0533 
     27 H8         10.1544   12.9328   30.0682 H         1 <1>         0.0542 
     28 H9          9.8208   13.2618   28.3442 H         1 <1>         0.0542 
     29 H10         6.3702   13.9264   29.8806 H         1 <1>         0.0542 
     30 H11         6.2664   12.9458   28.3699 H         1 <1>         0.0542 
     31 H12         6.4739   15.3801   27.9066 H         1 <1>         0.0533 
     32 H13         7.7873   14.3958   27.1889 H         1 <1>         0.0533 
     33 H14         3.6071   10.7420   30.4474 H         1 <1>         0.0748 
     34 H15         5.0500    8.5067   31.2710 H         1 <1>         0.0748 
@<TRIPOS>BOND
     1    2    1 ar   
     2    2    3 ar   
     3    3    4 ar   
     4    4    5 ar   
     5    5    6 ar   
     6    1    6 ar   
     7    6    7 1    
     8    7    8 1    
     9    8    9 1    
    10    9   10 1    
    11   10   11 1    
    12   11   12 1    
    13    7   12 1    
    14   10   13 am   
    15   13   14 2    
    16   13   15 1    
    17   15   16 1    
    18   16   17 2    
    19   17   18 1    
    20   18   19 2    
    21   15   19 1    
    22    1   20 1    
    23    2   21 1    
    24    3   22 1    
    25    4   23 1    
    26    5   24 1    
    27    8   25 1    
    28    8   26 1    
    29    9   27 1    
    30    9   28 1    
    31   11   29 1    
    32   11   30 1    
    33   12   31 1    
    34   12   32 1    
    35   17   33 1    
    36   18   34 1    
@<TRIPOS>SUBSTRUCTURE
     1 ****        2 TEMP              0 ****  ****    0 ROOT 
@<TRIPOS>NORMAL
@<TRIPOS>FF_PBC
FORCE_FIELD_SETUP_FEATURE Force Field Setup information
v1.0  0 0.000000 0.000000 0.000000 0.000000 0.000000 0.000000 NONE 0 0 0 0 1 0 0 0 0 0 0 0 0
