#	Name:			PISM00778.1
#	Creating user name:	baoopengkun
#	Creation time:		Fri Nov 30 22:18:45 2018

#	Modifying user name:	baoopengkun
#	Modification time:	Fri Nov 30 22:19:56 2018

@<TRIPOS>MOLECULE
PISM00778.1
   26    27     1     2     0
SMALL
GAST_HUCK


@<TRIPOS>ATOM
      1 C1        -26.5900   19.2544  -18.3352 C.2       1 <1>         0.1059 
      2 O2        -26.1528   19.2998  -19.4735 O.2       1 <1>        -0.4457 
      3 C3        -28.3696   16.9683  -15.8052 C.3       1 <1>         0.0063 
      4 C4        -26.5351   20.4372  -17.4733 C.2       1 <1>         0.0003 
      5 C5        -27.1998   18.0457  -17.7603 C.2       1 <1>         0.1515 
      6 C6        -27.6956   18.1133  -16.5171 C.2       1 <1>         0.1473 
      7 O7        -27.6260   19.2398  -15.7838 O.3       1 <1>        -0.2390 
      8 C8        -27.0576   20.3677  -16.2439 C.2       1 <1>         0.1073 
      9 O9        -27.2807   16.9077  -18.4620 O.3       1 <1>        -0.2929 
     10 C10       -26.0596   16.1447  -18.4602 C.3       1 <1>         0.2268 
     11 C11       -24.9081   16.8151  -19.1747 C.2       1 <1>        -0.0034 
     12 C12       -24.6107   16.1649  -20.2975 C.2       1 <1>         0.0291 
     13 C13       -25.5335   15.0364  -20.2911 C.2       1 <1>         0.2493 
     14 O14       -26.3415   14.9663  -19.2408 O.3       1 <1>        -0.2327 
     15 O15       -25.5558   14.2014  -21.1791 O.2       1 <1>        -0.3691 
     16 C16       -23.5552   16.4966  -21.3162 C.3       1 <1>        -0.0323 
     17 H1        -29.3852   17.2746  -15.5135 H         1 <1>         0.0436 
     18 H2        -27.7986   16.7217  -14.8978 H         1 <1>         0.0436 
     19 H3        -28.4443   16.0654  -16.4295 H         1 <1>         0.0436 
     20 H4        -26.0740   21.3528  -17.8448 H         1 <1>         0.0400 
     21 H5        -27.0310   21.2373  -15.5863 H         1 <1>         0.1276 
     22 H6        -25.7693   15.8358  -17.4422 H         1 <1>         0.1182 
     23 H7        -24.3844   17.7054  -18.8304 H         1 <1>         0.0704 
     24 H8        -22.6628   16.9098  -20.8227 H         1 <1>         0.0347 
     25 H9        -23.9542   17.2403  -22.0218 H         1 <1>         0.0347 
     26 H10       -23.2686   15.5914  -21.8722 H         1 <1>         0.0347 
@<TRIPOS>BOND
     1    1    4 1    
     2    5    1 1    
     3    1    2 2    
     4    6    3 1    
     5    6    5 2    
     6    6    7 1    
     7    7    8 1    
     8    4    8 2    
     9    5    9 1    
    10    9   10 1    
    11   10   11 1    
    12   11   12 2    
    13   12   13 1    
    14   13   14 1    
    15   10   14 1    
    16   13   15 2    
    17   12   16 1    
    18    3   17 1    
    19    3   18 1    
    20    3   19 1    
    21    4   20 1    
    22    8   21 1    
    23   10   22 1    
    24   11   23 1    
    25   16   24 1    
    26   16   25 1    
    27   16   26 1    
@<TRIPOS>SUBSTRUCTURE
     1 ****        4 TEMP              0 ****  ****    0 ROOT 
@<TRIPOS>NORMAL
@<TRIPOS>FF_PBC
FORCE_FIELD_SETUP_FEATURE Force Field Setup information
v1.0  0 0.000000 0.000000 0.000000 0.000000 0.000000 0.000000 NONE 0 0 0 0 1 0 0 0 0 0 0 0 0
@<TRIPOS>RENDERING_ATTRS
ANTIALIASED_LINES 
*
