#	Name:			PISM01144
#	Creating user name:	baoopengkun
#	Creation time:		Tue Dec 18 15:34:27 2018

#	Modifying user name:	baoopengkun
#	Modification time:	Tue Dec 18 15:36:34 2018

@<TRIPOS>MOLECULE
PISM01144
   42    43     1     1     0
SMALL
GAST_HUCK


@<TRIPOS>ATOM
      1 S1         -1.2574   10.9077    1.8124 S.o2      1 <1>         0.0673 
      2 O2         -1.4905   12.0318    0.9282 O.2       1 <1>        -0.1504 
      3 O3         -1.0498    9.5875    1.2530 O.2       1 <1>        -0.1504 
      4 N4         -2.4920   10.8140    2.8687 N.am      1 <1>        -0.2609 
      5 C5          0.0922   11.3084    2.9005 C.ar      1 <1>         0.1273 
      6 C6          0.0684   12.4922    3.6447 C.ar      1 <1>         0.0715 
      7 C7          1.1423   12.8109    4.4797 C.ar      1 <1>        -0.0404 
      8 C8          2.2356   11.9464    4.5781 C.ar      1 <1>        -0.0414 
      9 C9          2.2358   10.7282    3.8899 C.ar      1 <1>         0.0530 
     10 C10         1.1796   10.4374    3.0199 C.ar      1 <1>        -0.0148 
     11 Cl11       -1.2964   13.5862    3.5415 Cl        1 <1>        -0.0646 
     12 C12         3.3485    9.7148    4.0588 C.2       1 <1>         0.2196 
     13 O13         3.6834    9.0634    3.0828 O.2       1 <1>        -0.3833 
     14 N14         3.9418    9.5173    5.2542 N.am      1 <1>        -0.2156 
     15 N15         3.5022   10.2261    6.4990 N.3       1 <1>        -0.2022 
     16 C16         2.2987    9.6348    7.1233 C.3       1 <1>         0.0300 
     17 C17         1.7354   10.6102    8.1915 C.3       1 <1>        -0.0356 
     18 C18         2.8480   11.1331    9.1376 C.3       1 <1>        -0.0501 
     19 C19         3.9592   11.8349    8.3124 C.3       1 <1>        -0.0356 
     20 C20         4.5906   10.8751    7.2666 C.3       1 <1>         0.0300 
     21 C21         2.5280    8.1983    7.6651 C.3       1 <1>        -0.0475 
     22 C22         5.6163    9.8994    7.9098 C.3       1 <1>        -0.0475 
     23 H1         -3.2888   11.4076    2.7581 H         1 <1>         0.1635 
     24 H2         -2.4683   10.1434    3.6095 H         1 <1>         0.1635 
     25 H3          1.1270   13.7342    5.0502 H         1 <1>         0.0635 
     26 H4          3.0854   12.2363    5.1839 H         1 <1>         0.0669 
     27 H5          1.2019    9.5234    2.4364 H         1 <1>         0.0688 
     28 H6          4.6687    8.8314    5.2801 H         1 <1>         0.2064 
     29 H7          1.5421    9.5421    6.3245 H         1 <1>         0.0481 
     30 H8          0.9365   10.1200    8.7717 H         1 <1>         0.0281 
     31 H9          1.2922   11.4784    7.6744 H         1 <1>         0.0281 
     32 H10         3.2660   10.3104    9.7359 H         1 <1>         0.0266 
     33 H11         2.4087   11.8600    9.8419 H         1 <1>         0.0266 
     34 H12         4.7363   12.2361    8.9834 H         1 <1>         0.0281 
     35 H13         3.5038   12.6878    7.7816 H         1 <1>         0.0281 
     36 H14         5.1592   11.4852    6.5429 H         1 <1>         0.0481 
     37 H15         1.5627    7.7435    7.9382 H         1 <1>         0.0245 
     38 H16         3.1642    8.1822    8.5567 H         1 <1>         0.0245 
     39 H17         2.9952    7.5738    6.8889 H         1 <1>         0.0245 
     40 H18         5.1753    9.2849    8.7018 H         1 <1>         0.0245 
     41 H19         6.4396   10.4762    8.3597 H         1 <1>         0.0245 
     42 H20         6.0532    9.2298    7.1559 H         1 <1>         0.0245 
@<TRIPOS>BOND
     1    2    1 2    
     2    1    3 2    
     3    1    4 1    
     4    1    5 1    
     5    5    6 ar   
     6    6    7 ar   
     7    7    8 ar   
     8    8    9 ar   
     9    9   10 ar   
    10    5   10 ar   
    11    6   11 1    
    12    9   12 1    
    13   12   13 2    
    14   12   14 am   
    15   14   15 1    
    16   15   16 1    
    17   16   17 1    
    18   17   18 1    
    19   18   19 1    
    20   19   20 1    
    21   15   20 1    
    22   16   21 1    
    23   20   22 1    
    24    4   23 1    
    25    4   24 1    
    26    7   25 1    
    27    8   26 1    
    28   10   27 1    
    29   14   28 1    
    30   16   29 1    
    31   17   30 1    
    32   17   31 1    
    33   18   32 1    
    34   18   33 1    
    35   19   34 1    
    36   19   35 1    
    37   20   36 1    
    38   21   37 1    
    39   21   38 1    
    40   21   39 1    
    41   22   40 1    
    42   22   41 1    
    43   22   42 1    
@<TRIPOS>SUBSTRUCTURE
     1 ****        2 TEMP              0 ****  ****    0 ROOT 
@<TRIPOS>NORMAL
@<TRIPOS>FF_PBC
FORCE_FIELD_SETUP_FEATURE Force Field Setup information
v1.0  0 0.000000 0.000000 0.000000 0.000000 0.000000 0.000000 NONE 0 0 0 0 1 0 0 0 0 0 0 0 0
