#	Name:			PISM00458
#	Creating user name:	Administrator
#	Creation time:		Sat Feb 23 00:08:02 2019

#	Modifying user name:	Administrator
#	Modification time:	Sat Feb 23 00:29:25 2019

@<TRIPOS>MOLECULE
PISM00458
   48    50     1     2     0
SMALL
GAST_HUCK


@<TRIPOS>ATOM
      1 C1          6.1398    0.6077    3.6628 C.2       1 PHENYL     -0.0038 
      2 N2          5.4043    0.0367    2.8051 N.2       1 PHENYL     -0.2468 
      3 N3          4.4856    0.9028    2.3300 N.pl3     1 PHENYL     -0.2257 
      4 C4          4.6428    2.0692    2.8979 C.2       1 PHENYL      0.0587 
      5 C5          5.6735    1.9963    3.7522 C.2       1 PHENYL     -0.0133 
      6 C6          6.2811    3.0536    4.6383 C.3       1 PHENYL      0.0433 
      7 N7          5.9603    2.7632    6.0283 N.am      1 PHENYL     -0.2366 
      8 S8          7.2825    3.0174    7.3395 S.o2      1 PHENYL      0.0519 
      9 O9          8.5740    2.6579    6.7888 O.2       1 PHENYL     -0.1531 
     10 O10         6.8351    2.4210    8.5820 O.2       1 PHENYL     -0.1531 
     11 C11         7.1949    4.8057    7.4928 C.3       1 PHENYL      0.1184 
     12 C           8.1730    5.2695    8.5780 C.ar      1 PHENYL     -0.0196 
     13 C           9.5429    5.3160    8.3022 C.ar      1 PHENYL     -0.0550 
     14 C          10.4425    5.7541    9.2776 C.ar      1 PHENYL     -0.0567 
     15 C           9.9816    6.1538   10.5374 C.ar      1 PHENYL     -0.0222 
     16 C           8.6108    6.0999   10.8222 C.ar      1 PHENYL     -0.0258 
     17 C           7.7154    5.6487    9.8449 C.ar      1 PHENYL     -0.0533 
     18 C18         7.2545   -0.0604    4.4167 C.3       1 PHENYL     -0.0319 
     19 C19         3.7608    3.2529    2.5835 C.3       1 PHENYL     -0.0085 
     20 C20         3.4902    0.5538    1.3274 C.3       1 PHENYL      0.0529 
     21 C21         4.6455    2.2965    6.4449 C.3       1 PHENYL      0.0190 
     22 C22        10.8780    6.6057   11.5136 C.ar      1 PHENYL     -0.0568 
     23 H1          5.9434    4.0682    4.3916 H         1 PHENYL      0.0535 
     24 H2          7.3710    3.0289    4.4931 H         1 PHENYL      0.0535 
     25 H3          6.1576    5.0798    7.7354 H         1 PHENYL      0.0684 
     26 H4          7.4577    5.2574    6.5248 H         1 PHENYL      0.0684 
     27 H27         9.9132    5.0103    7.3287 H         1 PHENYL      0.0587 
     28 H28        11.5028    5.7805    9.0462 H         1 PHENYL      0.0620 
     29 C29         8.1485    6.4982   12.0828 C.ar      1 PHENYL     -0.0578 
     30 H30         6.6555    5.5908   10.0698 H         1 PHENYL      0.0531 
     31 H9          7.6977    0.6173    5.1598 H         1 PHENYL      0.0367 
     32 H10         8.0336   -0.3784    3.7088 H         1 PHENYL      0.0367 
     33 H11         6.8570   -0.9438    4.9370 H         1 PHENYL      0.0367 
     34 H12         3.9450    4.1136    3.2392 H         1 PHENYL      0.0412 
     35 H13         2.7071    2.9620    2.7036 H         1 PHENYL      0.0412 
     36 H14         3.9294    3.5653    1.5427 H         1 PHENYL      0.0412 
     37 H15         2.4833    0.5863    1.7690 H         1 PHENYL      0.0585 
     38 H16         3.6835   -0.4673    0.9661 H         1 PHENYL      0.0585 
     39 H17         3.5430    1.2443    0.4728 H         1 PHENYL      0.0585 
     40 H18         4.6164    1.1978    6.3930 H         1 PHENYL      0.0443 
     41 H19         3.8583    2.7080    5.7950 H         1 PHENYL      0.0443 
     42 H20         4.4405    2.6095    7.4794 H         1 PHENYL      0.0443 
     43 C43        10.4123    7.0044   12.7695 C.ar      1 PHENYL     -0.0634 
     44 C44         9.0458    6.9504   13.0543 C.ar      1 PHENYL     -0.0637 
     45 H5         11.9427    6.6511   11.3052 H         1 PHENYL      0.0619 
     46 H6          7.0893    6.4603   12.3185 H         1 PHENYL      0.0603 
     47 H7         11.1107    7.3559   13.5231 H         1 PHENYL      0.0598 
     48 H8          8.6820    7.2592   14.0296 H         1 PHENYL      0.0611 
@<TRIPOS>BOND
     1    1    2 2    
     2    2    3 1    
     3    4    3 1    
     4    5    4 2    
     5    5    1 1    
     6    6    5 1    
     7    7    6 1    
     8    8    7 1    
     9    8    9 2    
    10    8   10 2    
    11   11    8 1    
    12   12   13 ar   
    13   12   17 ar   
    14   17   16 ar   
    15   16   15 ar   
    16   14   15 ar   
    17   13   14 ar   
    18   12   11 1    
    19    1   18 1    
    20    4   19 1    
    21    3   20 1    
    22    7   21 1    
    23   15   22 ar   
    24    6   23 1    
    25    6   24 1    
    26   11   25 1    
    27   11   26 1    
    28   13   27 1    
    29   14   28 1    
    30   16   29 ar   
    31   17   30 1    
    32   18   31 1    
    33   18   32 1    
    34   18   33 1    
    35   19   34 1    
    36   19   35 1    
    37   19   36 1    
    38   20   37 1    
    39   20   38 1    
    40   20   39 1    
    41   21   40 1    
    42   21   41 1    
    43   21   42 1    
    44   22   43 ar   
    45   43   44 ar   
    46   29   44 ar   
    47   22   45 1    
    48   29   46 1    
    49   43   47 1    
    50   44   48 1    
@<TRIPOS>SUBSTRUCTURE
     1 PHENYL     12 PERM              0 ****  ****    0 ROOT 
@<TRIPOS>NORMAL
@<TRIPOS>FF_PBC
FORCE_FIELD_SETUP_FEATURE Force Field Setup information
v1.0  0 0.000000 0.000000 0.000000 0.000000 0.000000 0.000000 NONE 0 0 0 0 1 0 0 0 0 0 0 0 0
@<TRIPOS>RENDERING_ATTRS
ANTIALIASED_LINES 
*
