#	Name:			PISM00070
#	Creating user name:	baoopengkun
#	Creation time:		Thu Dec 27 11:33:00 2018

#	Modifying user name:	baoopengkun
#	Modification time:	Thu Dec 27 11:37:42 2018

@<TRIPOS>MOLECULE
PISM00070
   40    41     1     1     0
SMALL
GAST_HUCK


@<TRIPOS>ATOM
      1 C1        -13.7668   11.3510   -3.9432 C.3       1 <1>        -0.0475 
      2 C2        -13.2168   12.6559   -4.5767 C.3       1 <1>         0.0398 
      3 C3        -13.8301   13.9041   -3.9837 C.2       1 <1>         0.2002 
      4 O4        -14.6570   13.7813   -3.0953 O.2       1 <1>        -0.3795 
      5 N5        -13.4424   15.0669   -4.4393 N.pl3     1 <1>        -0.2421 
      6 C6        -13.9496   16.2313   -3.9635 C.ar      1 <1>         0.0515 
      7 C7        -15.3275   16.4064   -3.7873 C.ar      1 <1>        -0.0515 
      8 C8        -15.8256   17.6015   -3.2601 C.ar      1 <1>        -0.0815 
      9 C9        -14.9502   18.6399   -2.9317 C.ar      1 <1>        -0.0505 
     10 C10       -13.5763   18.4909   -3.1459 C.ar      1 <1>         0.0558 
     11 C11       -13.0830   17.2854   -3.6542 C.ar      1 <1>        -0.0179 
     12 N12       -12.7194   19.4975   -2.8509 N.pl3     1 <1>        -0.2370 
     13 C13       -12.7720   20.6583   -3.4587 C.2       1 <1>         0.1866 
     14 S14       -13.9409   20.8928   -4.6989 S.2       1 <1>        -0.2687 
     15 N15       -11.9074   21.6508   -3.1186 N.am      1 <1>        -0.1914 
     16 C16       -11.8511   22.9020   -3.6390 C.2       1 <1>         0.2419 
     17 O17       -12.6385   23.3084   -4.4757 O.2       1 <1>        -0.3692 
     18 C18       -10.7934   23.8929   -3.1906 C.ar      1 <1>         0.0576 
     19 C19        -9.5018   23.4882   -2.8290 C.ar      1 <1>        -0.0413 
     20 C20        -8.5729   24.4208   -2.3573 C.ar      1 <1>        -0.0561 
     21 C21        -8.9116   25.7747   -2.2885 C.ar      1 <1>        -0.0575 
     22 C22       -10.1812   26.1931   -2.6949 C.ar      1 <1>        -0.0561 
     23 C23       -11.1151   25.2547   -3.1440 C.ar      1 <1>        -0.0413 
     24 H24       -12.0997   25.5908   -3.4547 H         1 <1>         0.0670 
     25 H1        -13.2922   10.4714   -4.4062 H         1 <1>         0.0255 
     26 H2        -14.8557   11.2836   -4.0943 H         1 <1>         0.0255 
     27 H3        -13.5578   11.3349   -2.8618 H         1 <1>         0.0255 
     28 H4        -13.4235   12.6453   -5.6587 H         1 <1>         0.0508 
     29 H5        -12.1262   12.6959   -4.4267 H         1 <1>         0.0508 
     30 H6        -12.7147   15.1099   -5.1678 H         1 <1>         0.2106 
     31 H7        -16.0210   15.6198   -4.0659 H         1 <1>         0.0435 
     32 H8        -16.8935   17.7238   -3.1066 H         1 <1>         0.0558 
     33 H9        -15.3376   19.5607   -2.5074 H         1 <1>         0.0436 
     34 H10       -12.0157   17.1692   -3.8078 H         1 <1>         0.0439 
     35 H11       -12.0054   19.3169   -2.1315 H         1 <1>         0.2183 
     36 H12       -11.2555   21.4580   -2.3923 H         1 <1>         0.2372 
     37 H13        -9.1989   22.4508   -2.9204 H         1 <1>         0.0670 
     38 H14        -7.5846   24.0943   -2.0466 H         1 <1>         0.0629 
     39 H15        -8.1903   26.4993   -1.9224 H         1 <1>         0.0653 
     40 H16       -10.4424   27.2467   -2.6606 H         1 <1>         0.0629 
@<TRIPOS>BOND
     1    2    1 1    
     2    2    3 1    
     3    3    4 2    
     4    3    5 1    
     5    5    6 1    
     6    6    7 ar   
     7    7    8 ar   
     8    8    9 ar   
     9    9   10 ar   
    10   10   11 ar   
    11    6   11 ar   
    12   10   12 1    
    13   12   13 1    
    14   13   14 2    
    15   13   15 am   
    16   15   16 am   
    17   16   17 2    
    18   16   18 1    
    19   18   19 ar   
    20   19   20 ar   
    21   20   21 ar   
    22   21   22 ar   
    23   22   23 ar   
    24   18   23 ar   
    25   23   24 1    
    26    1   25 1    
    27    1   26 1    
    28    1   27 1    
    29    2   28 1    
    30    2   29 1    
    31    5   30 1    
    32    7   31 1    
    33    8   32 1    
    34    9   33 1    
    35   11   34 1    
    36   12   35 1    
    37   15   36 1    
    38   19   37 1    
    39   20   38 1    
    40   21   39 1    
    41   22   40 1    
@<TRIPOS>SUBSTRUCTURE
     1 ****        2 TEMP              0 ****  ****    0 ROOT 
@<TRIPOS>NORMAL
@<TRIPOS>FF_PBC
FORCE_FIELD_SETUP_FEATURE Force Field Setup information
v1.0  0 0.000000 0.000000 0.000000 0.000000 0.000000 0.000000 NONE 0 0 0 0 1 0 0 0 0 0 0 0 0
