#	Name:			PISM00951.1
#	Creating user name:	baoopengkun
#	Creation time:		Thu Dec 13 10:09:20 2018

#	Modifying user name:	baoopengkun
#	Modification time:	Thu Dec 13 10:11:47 2018

@<TRIPOS>MOLECULE
PISM00951.1
   48    50     1     1     0
SMALL
GAST_HUCK


@<TRIPOS>ATOM
      1 C1        -10.2568   -2.5649   -2.0399 C.3       1 <1>        -0.0575 
      2 C2         -9.0169   -1.6197   -2.0894 C.3       1 <1>        -0.0059 
      3 C3         -7.8507   -2.3865   -2.7916 C.3       1 <1>        -0.0575 
      4 C4         -8.5619   -1.3349   -0.6264 C.3       1 <1>        -0.0575 
      5 C5         -9.3432   -0.2972   -2.8814 C.3       1 <1>         0.1220 
      6 O6         -9.9941   -0.6221   -4.1282 O.3       1 <1>        -0.3851 
      7 C7        -10.2556    0.7275   -2.1351 C.3       1 <1>         0.2335 
      8 N8         -9.5579    1.3954   -1.0447 N.pl3     1 <1>        -0.1431 
      9 N9         -8.2366    1.7288   -0.9988 N.2       1 <1>        -0.1875 
     10 C10        -7.8965    2.3017    0.0953 C.2       1 <1>         0.0619 
     11 N11        -9.1540    2.3189    0.7900 N.2       1 <1>        -0.2869 
     12 C12       -10.0513    1.7927    0.0886 C.2       1 <1>         0.1311 
     13 O13       -10.6429    1.8469   -2.9574 O.3       1 <1>        -0.2777 
     14 C14       -11.4199    1.5829   -4.0852 C.ar      1 <1>         0.0970 
     15 C15       -12.7308    1.1148   -3.9533 C.ar      1 <1>        -0.0310 
     16 C16       -13.4824    0.8099   -5.0919 C.ar      1 <1>        -0.0616 
     17 C17       -12.9371    1.0017   -6.3654 C.ar      1 <1>        -0.0279 
     18 C18       -11.6386    1.5037   -6.4966 C.ar      1 <1>        -0.0616 
     19 C19       -10.8819    1.7923   -5.3574 C.ar      1 <1>        -0.0310 
     20 C20       -13.7330    0.6745   -7.5744 C.ar      1 <1>        -0.0247 
     21 C21       -13.2294   -0.2210   -8.5233 C.ar      1 <1>        -0.0567 
     22 C22       -13.9743   -0.5249   -9.6667 C.ar      1 <1>        -0.0629 
     23 C23       -15.2288    0.0609   -9.8596 C.ar      1 <1>        -0.0632 
     24 C24       -15.7368    0.9515   -8.9093 C.ar      1 <1>        -0.0629 
     25 C25       -14.9880    1.2599   -7.7696 C.ar      1 <1>        -0.0567 
     26 H1        -10.6046   -2.8162   -3.0531 H         1 <1>         0.0236 
     27 H2        -11.0942   -2.1112   -1.4920 H         1 <1>         0.0236 
     28 H3        -10.0006   -3.5073   -1.5314 H         1 <1>         0.0236 
     29 H4         -7.5644   -3.2793   -2.2143 H         1 <1>         0.0236 
     30 H5         -6.9615   -1.7433   -2.8782 H         1 <1>         0.0236 
     31 H6         -8.1269   -2.7315   -3.7977 H         1 <1>         0.0236 
     32 H7         -8.2858   -2.2697   -0.1146 H         1 <1>         0.0236 
     33 H8         -9.3661   -0.8744   -0.0362 H         1 <1>         0.0236 
     34 H9         -7.6810   -0.6770   -0.6153 H         1 <1>         0.0236 
     35 H10        -8.4132    0.2552   -3.0982 H         1 <1>         0.0661 
     36 H11        -9.4532   -1.0907   -4.7540 H         1 <1>         0.2101 
     37 H12       -11.1568    0.2224   -1.7620 H         1 <1>         0.1081 
     38 H13        -6.9223    2.6728    0.4102 H         1 <1>         0.0864 
     39 H14       -11.0883    1.6953    0.4079 H         1 <1>         0.1362 
     40 H15       -13.1684    0.9902   -2.9690 H         1 <1>         0.0548 
     41 H16       -14.4907    0.4223   -4.9856 H         1 <1>         0.0601 
     42 H17       -11.2166    1.6710   -7.4824 H         1 <1>         0.0601 
     43 H18        -9.8721    2.1767   -5.4538 H         1 <1>         0.0548 
     44 H19       -12.2590   -0.6834   -8.3721 H         1 <1>         0.0609 
     45 H20       -13.5787   -1.2164  -10.4044 H         1 <1>         0.0614 
     46 H21       -15.8082   -0.1756  -10.7470 H         1 <1>         0.0605 
     47 H22       -16.7126    1.4043   -9.0567 H         1 <1>         0.0614 
     48 H23       -15.3820    1.9572   -7.0369 H         1 <1>         0.0609 
@<TRIPOS>BOND
     1    2    1 1    
     2    2    3 1    
     3    2    4 1    
     4    2    5 1    
     5    5    6 1    
     6    5    7 1    
     7    7    8 1    
     8    8    9 1    
     9    9   10 2    
    10   10   11 1    
    11   11   12 2    
    12    8   12 1    
    13    7   13 1    
    14   13   14 1    
    15   14   15 ar   
    16   15   16 ar   
    17   16   17 ar   
    18   17   18 ar   
    19   18   19 ar   
    20   14   19 ar   
    21   17   20 1    
    22   20   21 ar   
    23   21   22 ar   
    24   22   23 ar   
    25   23   24 ar   
    26   24   25 ar   
    27   20   25 ar   
    28    1   26 1    
    29    1   27 1    
    30    1   28 1    
    31    3   29 1    
    32    3   30 1    
    33    3   31 1    
    34    4   32 1    
    35    4   33 1    
    36    4   34 1    
    37    5   35 1    
    38    6   36 1    
    39    7   37 1    
    40   10   38 1    
    41   12   39 1    
    42   15   40 1    
    43   16   41 1    
    44   18   42 1    
    45   19   43 1    
    46   21   44 1    
    47   22   45 1    
    48   23   46 1    
    49   24   47 1    
    50   25   48 1    
@<TRIPOS>SUBSTRUCTURE
     1 ****        2 TEMP              0 ****  ****    0 ROOT 
@<TRIPOS>NORMAL
@<TRIPOS>FF_PBC
FORCE_FIELD_SETUP_FEATURE Force Field Setup information
v1.0  0 0.000000 0.000000 0.000000 0.000000 0.000000 0.000000 NONE 0 0 0 0 1 0 0 0 0 0 0 0 0
