#	Name:			PISM00190.1
#	Creating user name:	14062
#	Creation time:		Fri Jul 12 13:37:48 2019

#	Modifying user name:	14062
#	Modification time:	Fri Jul 12 13:42:01 2019

@<TRIPOS>MOLECULE
PISM00190.1
   57    58     1     1     0
SMALL
GAST_HUCK


@<TRIPOS>ATOM
      1 C1         -4.0918    2.8280    0.6194 C.ar      1 <1>        -0.0768 
      2 C2         -3.1237    2.2954    1.4858 C.ar      1 <1>        -0.0748 
      3 C3         -1.8309    2.8331    1.5503 C.ar      1 <1>        -0.0467 
      4 C4         -1.5445    3.9186    0.7223 C.ar      1 <1>         0.0450 
      5 C5         -2.5025    4.4280   -0.1298 C.ar      1 <1>        -0.0185 
      6 C6         -3.7957    3.9150   -0.2131 C.ar      1 <1>        -0.0716 
      7 C7         -1.7404    5.5359   -0.8002 C.2       1 <1>        -0.0224 
      8 C8         -0.5024    5.5269   -0.2752 C.2       1 <1>         0.0040 
      9 N9         -0.3035    4.5854    0.6624 N.3       1 <1>        -0.2350 
     10 C10        -2.3045    6.4472   -1.8613 C.3       1 <1>         0.0784 
     11 C11        -1.4814    7.7184   -1.9207 C.2       1 <1>         0.2403 
     12 O12        -0.7693    7.9779   -2.8750 O.2       1 <1>        -0.3685 
     13 O13        -1.5222    8.5713   -0.8912 O.3       1 <1>        -0.2916 
     14 C14        -2.3467    5.6767   -3.2109 C.3       1 <1>        -0.0271 
     15 C15        -3.9971    5.6403   -8.0711 C.3       1 <1>        -0.0328 
     16 C16        -4.7424    6.4281   -9.1795 C.3       1 <1>         0.0328 
     17 N17        -4.7741    5.6249  -10.4000 N.am      1 <1>        -0.2625 
     18 C18        -5.6946    4.6490  -10.5457 C.2       1 <1>         0.3200 
     19 O19        -6.5449    4.4012   -9.7079 O.2       1 <1>        -0.3775 
     20 O20        -5.5512    4.0010  -11.7104 O.3       1 <1>        -0.2581 
     21 C21        -6.4824    2.9289  -11.9870 C.3       1 <1>         0.0905 
     22 C22        -6.3615    1.7589  -10.9674 C.3       1 <1>        -0.0320 
     23 C23        -6.0313    2.4136  -13.3833 C.3       1 <1>        -0.0320 
     24 C24        -7.9505    3.4343  -12.0989 C.3       1 <1>        -0.0320 
     25 H1         -5.0854    2.3914    0.5927 H         1 <1>         0.0524 
     26 C26        -3.1205    6.4576   -4.3101 C.3       1 <1>        -0.0495 
     27 H2         -3.3799    1.4508    2.1182 H         1 <1>         0.0543 
     28 H3         -1.0778    2.4251    2.2158 H         1 <1>         0.0548 
     29 C29        -3.1693    5.6594   -5.6420 C.3       1 <1>        -0.0527 
     30 H4         -4.5312    4.3378   -0.8890 H         1 <1>         0.0551 
     31 C31        -3.9325    6.4445   -6.7439 C.3       1 <1>        -0.0512 
     32 H5          0.2851    6.2171   -0.5817 H         1 <1>         0.0760 
     33 H6         -0.0989    5.0525    1.6164 H         1 <1>         0.1886 
     34 H7         -3.3331    6.7135   -1.5715 H         1 <1>         0.0644 
     35 H8         -2.0805    8.3008   -0.1728 H         1 <1>         0.2540 
     36 H9         -2.8504    4.7081   -3.0558 H         1 <1>         0.0308 
     37 H10        -1.3157    5.4732   -3.5440 H         1 <1>         0.0308 
     38 H11        -4.5177    4.6844   -7.8969 H         1 <1>         0.0284 
     39 H12        -2.9764    5.4164   -8.4219 H         1 <1>         0.0284 
     40 H13        -4.2212    7.3824   -9.3660 H         1 <1>         0.0519 
     41 H14        -5.7662    6.6706   -8.8482 H         1 <1>         0.0519 
     42 H15        -4.0822    5.7792  -11.1076 H         1 <1>         0.1867 
     43 H16        -6.9320    0.8860  -11.3195 H         1 <1>         0.0260 
     44 H17        -6.7481    2.0267   -9.9745 H         1 <1>         0.0260 
     45 H18        -5.3056    1.4681  -10.8597 H         1 <1>         0.0260 
     46 H19        -6.6641    1.5816  -13.7286 H         1 <1>         0.0260 
     47 H20        -4.9884    2.0632  -13.3395 H         1 <1>         0.0260 
     48 H21        -6.0889    3.2259  -14.1243 H         1 <1>         0.0260 
     49 H22        -7.9939    4.3007  -12.7761 H         1 <1>         0.0260 
     50 H23        -8.3644    3.7356  -11.1269 H         1 <1>         0.0260 
     51 H24        -8.5973    2.6405  -12.5024 H         1 <1>         0.0260 
     52 H25        -2.6362    7.4297   -4.4934 H         1 <1>         0.0268 
     53 H26        -4.1504    6.6477   -3.9658 H         1 <1>         0.0268 
     54 H27        -3.6705    4.6925   -5.4705 H         1 <1>         0.0265 
     55 H28        -2.1406    5.4592   -5.9845 H         1 <1>         0.0265 
     56 H29        -4.9580    6.6556   -6.3983 H         1 <1>         0.0266 
     57 H30        -3.4238    7.4058   -6.9241 H         1 <1>         0.0266 
@<TRIPOS>BOND
     1    1    2 ar   
     2    3    2 ar   
     3    4    3 ar   
     4    5    4 ar   
     5    5    6 ar   
     6    6    1 ar   
     7    7    5 1    
     8    7    8 2    
     9    8    9 1    
    10    9    4 1    
    11   10    7 1    
    12   10   11 1    
    13   11   12 2    
    14   11   13 1    
    15   14   10 1    
    16   31   15 1    
    17   15   16 1    
    18   16   17 1    
    19   17   18 am   
    20   18   19 2    
    21   18   20 1    
    22   20   21 1    
    23   21   22 1    
    24   21   23 1    
    25   21   24 1    
    26    1   25 1    
    27   26   14 1    
    28    2   27 1    
    29    3   28 1    
    30   29   26 1    
    31    6   30 1    
    32   29   31 1    
    33    8   32 1    
    34    9   33 1    
    35   10   34 1    
    36   13   35 1    
    37   14   36 1    
    38   14   37 1    
    39   15   38 1    
    40   15   39 1    
    41   16   40 1    
    42   16   41 1    
    43   17   42 1    
    44   22   43 1    
    45   22   44 1    
    46   22   45 1    
    47   23   46 1    
    48   23   47 1    
    49   23   48 1    
    50   24   49 1    
    51   24   50 1    
    52   24   51 1    
    53   26   52 1    
    54   26   53 1    
    55   29   54 1    
    56   29   55 1    
    57   31   56 1    
    58   31   57 1    
@<TRIPOS>SUBSTRUCTURE
     1 ****        2 TEMP              0 ****  ****    0 ROOT 
@<TRIPOS>NORMAL
@<TRIPOS>FF_PBC
FORCE_FIELD_SETUP_FEATURE Force Field Setup information
v1.0  0 0.000000 0.000000 0.000000 0.000000 0.000000 0.000000 NONE 0 0 0 0 1 0 0 0 0 0 0 0 0
