#	Name:			PISM00863
#	Creating user name:	baoopengkun
#	Creation time:		Thu Dec 13 23:15:37 2018

#	Modifying user name:	baoopengkun
#	Modification time:	Thu Dec 13 23:16:07 2018

@<TRIPOS>MOLECULE
PISM00863
   24    25     1     1     0
SMALL
GAST_HUCK


@<TRIPOS>ATOM
      1 Br1         0.6602    1.4825    1.9434 Br        1 <1>        -0.0572 
      2 C2         -2.0775    2.1500    2.0960 C.ar      1 <1>        -0.0582 
      3 C3         -3.3496    2.3997    1.5732 C.ar      1 <1>        -0.0671 
      4 C4         -3.5640    2.3262    0.1939 C.ar      1 <1>        -0.0582 
      5 C5         -2.5053    2.0114   -0.6629 C.ar      1 <1>         0.0437 
      6 C6         -1.2264    1.7903   -0.1422 C.ar      1 <1>         0.1182 
      7 C7         -1.0173    1.8371    1.2400 C.ar      1 <1>         0.0437 
      8 Br8        -2.8010    1.8854   -2.4882 Br        1 <1>        -0.0572 
      9 O9         -0.1638    1.5214   -1.0040 O.3       1 <1>        -0.2664 
     10 C10         0.5768    2.6948   -1.3646 C.3       1 <1>         0.2373 
     11 O11        -0.2953    3.6711   -1.9691 O.3       1 <1>        -0.2311 
     12 C12         0.1071    3.7660   -3.2298 C.2       1 <1>         0.2495 
     13 C13         1.2598    2.9453   -3.5839 C.2       1 <1>         0.0292 
     14 C14         1.5474    2.3064   -2.4516 C.2       1 <1>        -0.0016 
     15 C15         1.9565    2.8400   -4.9129 C.3       1 <1>        -0.0323 
     16 O16        -0.4488    4.4988   -4.0296 O.2       1 <1>        -0.3691 
     17 H1         -1.9130    2.1986    3.1678 H         1 <1>         0.0640 
     18 H2         -4.1711    2.6496    2.2382 H         1 <1>         0.0538 
     19 H3         -4.5530    2.5132   -0.2123 H         1 <1>         0.0640 
     20 H4          1.1027    3.1398   -0.5043 H         1 <1>         0.1202 
     21 H5          2.3622    1.5950   -2.3246 H         1 <1>         0.0705 
     22 H6          2.0714    1.7821   -5.1928 H         1 <1>         0.0347 
     23 H7          2.9507    3.3061   -4.8463 H         1 <1>         0.0347 
     24 H8          1.3722    3.3528   -5.6916 H         1 <1>         0.0347 
@<TRIPOS>BOND
     1    7    1 1    
     2    3    2 ar   
     3    4    3 ar   
     4    5    4 ar   
     5    6    5 ar   
     6    6    7 ar   
     7    2    7 ar   
     8    5    8 1    
     9    6    9 1    
    10    9   10 1    
    11   10   11 1    
    12   11   12 1    
    13   12   13 1    
    14   13   14 2    
    15   10   14 1    
    16   13   15 1    
    17   12   16 2    
    18    2   17 1    
    19    3   18 1    
    20    4   19 1    
    21   10   20 1    
    22   14   21 1    
    23   15   22 1    
    24   15   23 1    
    25   15   24 1    
@<TRIPOS>SUBSTRUCTURE
     1 ****        2 TEMP              0 ****  ****    0 ROOT 
@<TRIPOS>NORMAL
@<TRIPOS>FF_PBC
FORCE_FIELD_SETUP_FEATURE Force Field Setup information
v1.0  0 0.000000 0.000000 0.000000 0.000000 0.000000 0.000000 NONE 0 0 0 0 1 0 0 0 0 0 0 0 0
