#	Name:			PISM01033.1
#	Creating user name:	malab
#	Creation time:		Tue Jul 02 17:12:55 2019

#	Modifying user name:	malab
#	Modification time:	Tue Jul 02 17:16:47 2019

@<TRIPOS>MOLECULE
PISM01033.1
   40    41     1     1     0
SMALL
GAST_HUCK


@<TRIPOS>ATOM
      1 N1         -6.0676    1.1653   -5.0454 N.pl3     1 <1>        -0.1706 
      2 C2         -6.2838    0.1051   -5.7657 C.2       1 <1>         0.1284 
      3 N3         -5.2721   -0.6368   -5.7605 N.2       1 <1>        -0.2870 
      4 C4         -4.2309   -0.0618   -4.9554 C.2       1 <1>         0.0618 
      5 N5         -4.8015    1.0158   -4.5636 N.2       1 <1>        -0.1897 
      6 C6         -6.9888    2.2649   -4.7628 C.3       1 <1>         0.1222 
      7 C7         -6.7286    2.7666   -3.3042 C.3       1 <1>         0.0945 
      8 O8         -5.3997    3.3257   -3.2743 O.3       1 <1>        -0.3879 
      9 C9         -7.7696    3.7543   -2.6520 C.3       1 <1>        -0.0085 
     10 C10        -7.7125    3.6031   -1.0970 C.3       1 <1>        -0.0576 
     11 C11        -7.4536    5.2475   -2.9782 C.3       1 <1>        -0.0576 
     12 C12        -9.2312    3.4375   -3.0914 C.3       1 <1>        -0.0576 
     13 C13        -6.7842    3.3316   -5.8701 C.3       1 <1>         0.0165 
     14 C14        -6.7802    2.6447   -7.2435 C.ar      1 <1>        -0.0396 
     15 C15        -5.5746    2.2311   -7.8222 C.ar      1 <1>        -0.0596 
     16 C16        -5.5710    1.5908   -9.0646 C.ar      1 <1>        -0.0546 
     17 C17        -6.7741    1.3621   -9.7369 C.ar      1 <1>         0.0330 
     18 C18        -7.9797    1.7781   -9.1663 C.ar      1 <1>        -0.0546 
     19 C19        -7.9824    2.4169   -7.9230 C.ar      1 <1>        -0.0596 
     20 Cl20       -6.7712    0.5553  -11.2917 Cl        1 <1>        -0.0771 
     21 H1         -7.1991   -0.1305   -6.3076 H         1 <1>         0.1361 
     22 H2         -3.2324   -0.4365   -4.7357 H         1 <1>         0.0864 
     23 H3         -8.0018    1.8424   -4.8491 H         1 <1>         0.0729 
     24 H4         -6.7320    1.8302   -2.7179 H         1 <1>         0.0633 
     25 H5         -5.0535    3.4701   -2.4005 H         1 <1>         0.2099 
     26 H6         -6.7070    3.8172   -0.7070 H         1 <1>         0.0236 
     27 H7         -7.9880    2.5821   -0.7906 H         1 <1>         0.0236 
     28 H8         -8.4121    4.2973   -0.6062 H         1 <1>         0.0236 
     29 H9         -7.4711    5.4521   -4.0540 H         1 <1>         0.0236 
     30 H10        -6.4637    5.5383   -2.5966 H         1 <1>         0.0236 
     31 H11        -8.1975    5.9081   -2.5065 H         1 <1>         0.0236 
     32 H12        -9.3870    3.6547   -4.1579 H         1 <1>         0.0236 
     33 H13        -9.9500    4.0528   -2.5284 H         1 <1>         0.0236 
     34 H14        -9.4708    2.3797   -2.9022 H         1 <1>         0.0236 
     35 H15        -5.8300    3.8578   -5.7149 H         1 <1>         0.0459 
     36 H16        -7.5926    4.0744   -5.8689 H         1 <1>         0.0459 
     37 H17        -4.6345    2.3990   -7.3057 H         1 <1>         0.0557 
     38 H18        -4.6344    1.2691   -9.5082 H         1 <1>         0.0606 
     39 H19        -8.9132    1.6036   -9.6913 H         1 <1>         0.0606 
     40 H20        -8.9252    2.7327   -7.4874 H         1 <1>         0.0557 
@<TRIPOS>BOND
     1    2    1 1    
     2    2    3 2    
     3    3    4 1    
     4    4    5 2    
     5    1    5 1    
     6    1    6 1    
     7    6    7 1    
     8    7    8 1    
     9    7    9 1    
    10    9   10 1    
    11    9   11 1    
    12    9   12 1    
    13    6   13 1    
    14   13   14 1    
    15   14   15 ar   
    16   15   16 ar   
    17   16   17 ar   
    18   17   18 ar   
    19   18   19 ar   
    20   14   19 ar   
    21   17   20 1    
    22    2   21 1    
    23    4   22 1    
    24    6   23 1    
    25    7   24 1    
    26    8   25 1    
    27   10   26 1    
    28   10   27 1    
    29   10   28 1    
    30   11   29 1    
    31   11   30 1    
    32   11   31 1    
    33   12   32 1    
    34   12   33 1    
    35   12   34 1    
    36   13   35 1    
    37   13   36 1    
    38   15   37 1    
    39   16   38 1    
    40   18   39 1    
    41   19   40 1    
@<TRIPOS>SUBSTRUCTURE
     1 ****        2 TEMP              0 ****  ****    0 ROOT 
@<TRIPOS>NORMAL
@<TRIPOS>FF_PBC
FORCE_FIELD_SETUP_FEATURE Force Field Setup information
v1.0  0 0.000000 0.000000 0.000000 0.000000 0.000000 0.000000 NONE 0 0 0 0 1 0 0 0 0 0 0 0 0
