#	Name:			PISM01215.1
#	Creating user name:	14062
#	Creation time:		Sun Oct 20 21:04:09 2019

#	Modifying user name:	14062
#	Modification time:	Sun Oct 20 21:07:34 2019

@<TRIPOS>MOLECULE
PISM01215.1
   42    44     2     2     0
SMALL
GAST_HUCK


@<TRIPOS>ATOM
      1 N1          7.7820    4.8649    1.3360 N.am      1 BENZYL     -0.2587 
      2 C1          8.0463    3.5533    1.0637 C.2       1 BENZYL      0.2065 
      3 C2          7.1181    2.6215    0.3185 C.ar      1 BENZYL      0.0460 
      4 C3          7.1034    2.6308   -1.0803 C.ar      1 BENZYL     -0.0437 
      5 C4          6.2027    1.8204   -1.7778 C.ar      1 BENZYL     -0.0223 
      6 C5          5.3388    0.9748   -1.0776 C.ar      1 BENZYL      0.1375 
      7 C6          5.3944    0.9192    0.3172 C.ar      1 BENZYL     -0.0223 
      8 C7          6.3000    1.7253    1.0134 C.ar      1 BENZYL     -0.0437 
      9 F9          4.4650    0.2207   -1.7392 F         1 BENZYL     -0.1794 
     10 O10         9.0925    3.0278    1.4066 O.2       1 BENZYL     -0.3862 
     11 C11         6.4649    5.4881    1.0859 C.3       1 BENZYL      0.0466 
     12 C12         5.6574    5.1728   -0.2053 C.3       1 BENZYL     -0.0414 
     13 C13         5.5468    5.5558    2.3446 C.3       1 BENZYL     -0.0179 
     14 C14         4.5497    4.3970    2.5855 C.3       1 BENZYL     -0.0478 
     15 C15         5.7945    4.5396    3.4828 C.3       1 BENZYL     -0.0478 
     16 C1          8.8517    5.6426    1.9857 C.3       2 BENZYL      0.0672 
     17 C2          8.5431    5.7859    3.4808 C.ar      2 BENZYL     -0.0208 
     18 C3          8.9108    4.7687    4.3688 C.ar      2 BENZYL     -0.0584 
     19 C4          8.6204    4.8812    5.7315 C.ar      2 BENZYL     -0.0685 
     20 C5          7.9616    6.0151    6.2145 C.ar      2 BENZYL     -0.0687 
     21 C6          7.5993    7.0375    5.3333 C.ar      2 BENZYL     -0.0685 
     22 C7          7.8924    6.9241    3.9713 C.ar      2 BENZYL     -0.0584 
     23 H1          7.7942    3.2677   -1.6240 H         1 BENZYL      0.0659 
     24 H2          6.1702    1.8438   -2.8620 H         1 BENZYL      0.0616 
     25 H3          4.7333    0.2476    0.8548 H         1 BENZYL      0.0616 
     26 H4          6.3698    1.6508    2.0933 H         1 BENZYL      0.0659 
     27 H5          6.7018    6.5533    0.9181 H         1 BENZYL      0.0559 
     28 H6          5.1841    4.1844   -0.1912 H         1 BENZYL      0.0252 
     29 H7          6.3135    5.2473   -1.0856 H         1 BENZYL      0.0252 
     30 H8          4.8433    5.9062   -0.3274 H         1 BENZYL      0.0252 
     31 H9          5.1279    6.5288    2.6529 H         1 BENZYL      0.0323 
     32 H10         4.5561    3.4923    1.9648 H         1 BENZYL      0.0269 
     33 H11         3.6010    4.6249    3.0965 H         1 BENZYL      0.0269 
     34 H12         6.5612    3.7635    3.3554 H         1 BENZYL      0.0269 
     35 H13         5.6173    4.8903    4.5116 H         1 BENZYL      0.0269 
     36 H14         9.8528    5.1958    1.8764 H         2 BENZYL      0.0685 
     37 H15         8.9377    6.6400    1.5283 H         2 BENZYL      0.0685 
     38 H16         9.4200    3.8834    4.0008 H         2 BENZYL      0.0557 
     39 H17         8.9059    4.0870    6.4145 H         2 BENZYL      0.0599 
     40 H18         7.7320    6.1015    7.2721 H         2 BENZYL      0.0559 
     41 H19         7.0892    7.9200    5.7073 H         2 BENZYL      0.0599 
     42 H20         7.6078    7.7255    3.2974 H         2 BENZYL      0.0557 
@<TRIPOS>BOND
     1    2    3 1    
     2    3    4 ar   
     3    3    8 ar   
     4    8    7 ar   
     5    7    6 ar   
     6    6    5 ar   
     7    5    4 ar   
     8    2    1 am   
     9    6    9 1    
    10    2   10 2    
    11    1   11 1    
    12   11   12 1    
    13   11   13 1    
    14   13   14 1    
    15   14   15 1    
    16   13   15 1    
    17   16   17 1    
    18   17   18 ar   
    19   17   22 ar   
    20   22   21 ar   
    21   21   20 ar   
    22   20   19 ar   
    23   19   18 ar   
    24    1   16 1    
    25    4   23 1    
    26    5   24 1    
    27    7   25 1    
    28    8   26 1    
    29   11   27 1    
    30   12   28 1    
    31   12   29 1    
    32   12   30 1    
    33   13   31 1    
    34   14   32 1    
    35   14   33 1    
    36   15   34 1    
    37   15   35 1    
    38   16   36 1    
    39   16   37 1    
    40   18   38 1    
    41   19   39 1    
    42   20   40 1    
    43   21   41 1    
    44   22   42 1    
@<TRIPOS>SUBSTRUCTURE
     1 BENZYL      2 PERM              0 ****  ****    1 ROOT 
     2 BENZYL     16 PERM              0 ****  ****    1  
@<TRIPOS>NORMAL
@<TRIPOS>FF_PBC
FORCE_FIELD_SETUP_FEATURE Force Field Setup information
v1.0  0 0.000000 0.000000 0.000000 0.000000 0.000000 0.000000 NONE 0 0 0 0 1 0 0 0 0 0 0 0 0
@<TRIPOS>RENDERING_ATTRS
ANTIALIASED_LINES 
*
