#	Name:			PISM01064
#	Creating user name:	Qinrunwen
#	Creation time:		Sun Mar 31 13:10:46 2019

#	Modifying user name:	Qinrunwen
#	Modification time:	Sun Mar 31 13:14:59 2019

@<TRIPOS>MOLECULE
PISM01064
    9     8     1     1     0
SMALL
GAST_HUCK


@<TRIPOS>ATOM
      1 N1          0.0749    3.7588    0.0602 N.am      1 <1>        -0.2857 
      2 C2          0.0634    2.4139    0.1392 C.2       1 <1>         0.2785 
      3 N3         -0.9979    1.6964   -0.3089 N.am      1 <1>        -0.1506 
      4 O4          1.0179    1.8308    0.6241 O.2       1 <1>        -0.4011 
      5 O5         -1.0602    0.5303   -0.2954 O.3       1 <1>        -0.2719 
      6 H1         -0.6838    4.2786   -0.3279 H         1 <1>         0.1807 
      7 H2          0.8779    4.2448    0.4052 H         1 <1>         0.1807 
      8 H3         -1.7721    2.1905   -0.7053 H         1 <1>         0.2209 
      9 H4         -0.5358    0.1014    0.3806 H         1 <1>         0.2486 
@<TRIPOS>BOND
     1    3    2 am   
     2    2    1 am   
     3    2    4 2    
     4    3    5 1    
     5    1    6 1    
     6    1    7 1    
     7    3    8 1    
     8    5    9 1    
@<TRIPOS>SUBSTRUCTURE
     1 ****        3 TEMP              0 ****  ****    0 ROOT 
@<TRIPOS>NORMAL
@<TRIPOS>FF_PBC
FORCE_FIELD_SETUP_FEATURE Force Field Setup information
v1.0  0 0.000000 0.000000 0.000000 0.000000 0.000000 0.000000 NONE 0 0 0 0 1 0 0 0 0 0 0 0 0
