#	Name:			PISM00948
#	Creating user name:	baoopengkun
#	Creation time:		Fri Jan 11 10:46:37 2019

#	Modifying user name:	baoopengkun
#	Modification time:	Fri Jan 11 10:48:08 2019

@<TRIPOS>MOLECULE
PISM00948
   46    48     1     1     0
SMALL
GAST_HUCK


@<TRIPOS>ATOM
      1 C1         -1.3719    8.1225   -1.8277 C.ar      1 <1>        -0.0559 
      2 C2         -0.9226    7.2175   -0.8612 C.ar      1 <1>        -0.0429 
      3 C3         -0.4056    5.9681   -1.2282 C.ar      1 <1>         0.0359 
      4 C4         -0.3688    5.6345   -2.5888 C.ar      1 <1>        -0.0429 
      5 C5         -0.8102    6.5382   -3.5599 C.ar      1 <1>        -0.0559 
      6 C6         -1.3121    7.7857   -3.1817 C.ar      1 <1>        -0.0572 
      7 C7          0.0877    5.0353   -0.1373 C.2       1 <1>         0.1688 
      8 O8         -0.1985    5.2903    1.0222 O.2       1 <1>        -0.3749 
      9 C9          0.9242    3.8015   -0.3948 C.3       1 <1>         0.1597 
     10 N10         0.1882    2.8782   -1.2482 N.pl3     1 <1>        -0.1577 
     11 C11        -1.0378    2.4790   -1.0960 C.2       1 <1>         0.1306 
     12 N12        -1.3608    1.7080   -2.0316 N.2       1 <1>        -0.2869 
     13 C13        -0.2660    1.5397   -2.9463 C.2       1 <1>         0.0620 
     14 N14         0.6205    2.2820   -2.3954 N.2       1 <1>        -0.1877 
     15 C15         2.3207    4.2097   -0.9425 C.3       1 <1>        -0.0040 
     16 C16         3.3309    3.0293   -1.0120 C.3       1 <1>        -0.0456 
     17 C17         4.7141    3.5206   -1.5217 C.3       1 <1>        -0.0248 
     18 C18         5.6972    2.3487   -1.7636 C.3       1 <1>         0.0704 
     19 O19         6.9344    2.9060   -2.2381 O.3       1 <1>        -0.3180 
     20 C20         7.8748    1.9704   -2.6694 C.ar      1 <1>         0.0911 
     21 C21         8.5422    1.1561   -1.7491 C.ar      1 <1>        -0.0331 
     22 C22         9.4666    0.2080   -2.1979 C.ar      1 <1>        -0.0706 
     23 C23         9.7328    0.0823   -3.5650 C.ar      1 <1>        -0.0729 
     24 C24         9.0804    0.9102   -4.4839 C.ar      1 <1>        -0.0706 
     25 C25         8.1506    1.8516   -4.0339 C.ar      1 <1>        -0.0331 
     26 H1         -1.7671    9.0881   -1.5262 H         1 <1>         0.0630 
     27 H2         -0.9776    7.4983    0.1859 H         1 <1>         0.0672 
     28 H3         -0.0046    4.6721   -2.9210 H         1 <1>         0.0672 
     29 H4         -0.7649    6.2702   -4.6116 H         1 <1>         0.0630 
     30 H5         -1.6540    8.4883   -3.9357 H         1 <1>         0.0655 
     31 H6          1.0768    3.2843    0.5669 H         1 <1>         0.0907 
     32 H7         -1.7063    2.7633   -0.2829 H         1 <1>         0.1363 
     33 H8         -0.2051    0.9461   -3.8573 H         1 <1>         0.0864 
     34 H9          2.7404    4.9818   -0.2761 H         1 <1>         0.0321 
     35 H10         2.2100    4.6513   -1.9439 H         1 <1>         0.0321 
     36 H11         2.9571    2.2529   -1.6958 H         1 <1>         0.0269 
     37 H12         3.4518    2.5758   -0.0142 H         1 <1>         0.0269 
     38 H13         5.1571    4.2162   -0.7901 H         1 <1>         0.0291 
     39 H14         4.5902    4.0595   -2.4757 H         1 <1>         0.0291 
     40 H15         5.2779    1.6700   -2.5250 H         1 <1>         0.0614 
     41 H16         5.8552    1.7852   -0.8301 H         1 <1>         0.0614 
     42 H17         8.3440    1.2622   -0.6882 H         1 <1>         0.0542 
     43 H18         9.9790   -0.4308   -1.4850 H         1 <1>         0.0589 
     44 H19        10.4467   -0.6579   -3.9140 H         1 <1>         0.0523 
     45 H20         9.2947    0.8220   -5.5445 H         1 <1>         0.0589 
     46 H21         7.6366    2.4947   -4.7406 H         1 <1>         0.0542 
@<TRIPOS>BOND
     1    2    1 ar   
     2    2    3 ar   
     3    3    4 ar   
     4    4    5 ar   
     5    5    6 ar   
     6    1    6 ar   
     7    3    7 1    
     8    7    8 2    
     9    7    9 1    
    10    9   10 1    
    11   10   11 1    
    12   11   12 2    
    13   12   13 1    
    14   13   14 2    
    15   10   14 1    
    16    9   15 1    
    17   15   16 1    
    18   16   17 1    
    19   17   18 1    
    20   18   19 1    
    21   19   20 1    
    22   20   21 ar   
    23   21   22 ar   
    24   22   23 ar   
    25   23   24 ar   
    26   24   25 ar   
    27   20   25 ar   
    28    1   26 1    
    29    2   27 1    
    30    4   28 1    
    31    5   29 1    
    32    6   30 1    
    33    9   31 1    
    34   11   32 1    
    35   13   33 1    
    36   15   34 1    
    37   15   35 1    
    38   16   36 1    
    39   16   37 1    
    40   17   38 1    
    41   17   39 1    
    42   18   40 1    
    43   18   41 1    
    44   21   42 1    
    45   22   43 1    
    46   23   44 1    
    47   24   45 1    
    48   25   46 1    
@<TRIPOS>SUBSTRUCTURE
     1 ****        2 TEMP              0 ****  ****    0 ROOT 
@<TRIPOS>NORMAL
@<TRIPOS>FF_PBC
FORCE_FIELD_SETUP_FEATURE Force Field Setup information
v1.0  0 0.000000 0.000000 0.000000 0.000000 0.000000 0.000000 NONE 0 0 0 0 1 0 0 0 0 0 0 0 0
