#	Name:			PISM00871.1
#	Creating user name:	baoopengkun
#	Creation time:		Thu Dec 13 23:15:37 2018

#	Modifying user name:	baoopengkun
#	Modification time:	Thu Dec 13 23:53:23 2018

@<TRIPOS>MOLECULE
PISM00871.1
   24    25     1     1     0
SMALL
GAST_HUCK


@<TRIPOS>ATOM
      1 H2          1.4806    0.1763    1.5846 H         1 <1>         0.0549 
      2 C2          2.9919   -1.3078    1.9960 C.ar      1 <1>        -0.0609 
      3 C3          4.3071   -1.7160    1.7547 C.ar      1 <1>         0.0018 
      4 C4          5.1273   -0.9637    0.9090 C.ar      1 <1>        -0.0470 
      5 C5          4.6310    0.1914    0.2986 C.ar      1 <1>         0.0711 
      6 C6          3.3143    0.5970    0.5364 C.ar      1 <1>         0.1155 
      7 C7          2.4976   -0.1484    1.3911 C.ar      1 <1>        -0.0291 
      8 Cl8         5.6583    1.1280   -0.7680 Cl        1 <1>        -0.0781 
      9 O9          2.8180    1.7455   -0.0783 O.3       1 <1>        -0.2678 
     10 C10         2.0060    1.4972   -1.2350 C.3       1 <1>         0.2365 
     11 O11         1.6497    2.7760   -1.7957 O.3       1 <1>        -0.2312 
     12 C12         2.2482    2.8192   -2.9796 C.2       1 <1>         0.2495 
     13 C13         2.9827    1.6167   -3.3558 C.2       1 <1>         0.0292 
     14 C14         2.8167    0.8107   -2.3096 C.2       1 <1>        -0.0018 
     15 C15         3.7362    1.3430   -4.6285 C.3       1 <1>        -0.0323 
     16 O16         2.1757    3.7970   -3.7038 O.2       1 <1>        -0.3691 
     17 H1          2.3550   -1.8907    2.6538 H         1 <1>         0.0617 
     18 Br18        4.9628   -3.2524    2.5554 Br        1 <1>        -0.0599 
     19 H3          6.1500   -1.2752    0.7246 H         1 <1>         0.0622 
     20 H4          1.0920    0.9329   -0.9869 H         1 <1>         0.1200 
     21 H5          3.2183   -0.1992   -2.2373 H         1 <1>         0.0705 
     22 H6          3.4646    0.3523   -5.0223 H         1 <1>         0.0347 
     23 H7          4.8172    1.3671   -4.4252 H         1 <1>         0.0347 
     24 H8          3.4969    2.1055   -5.3849 H         1 <1>         0.0347 
@<TRIPOS>BOND
     1    7    1 1    
     2    3    2 ar   
     3    4    3 ar   
     4    5    4 ar   
     5    6    5 ar   
     6    6    7 ar   
     7    2    7 ar   
     8    5    8 1    
     9    6    9 1    
    10    9   10 1    
    11   10   11 1    
    12   11   12 1    
    13   12   13 1    
    14   13   14 2    
    15   10   14 1    
    16   13   15 1    
    17   12   16 2    
    18    2   17 1    
    19    3   18 1    
    20    4   19 1    
    21   10   20 1    
    22   14   21 1    
    23   15   22 1    
    24   15   23 1    
    25   15   24 1    
@<TRIPOS>SUBSTRUCTURE
     1 ****        2 TEMP              0 ****  ****    0 ROOT 
@<TRIPOS>NORMAL
@<TRIPOS>FF_PBC
FORCE_FIELD_SETUP_FEATURE Force Field Setup information
v1.0  0 0.000000 0.000000 0.000000 0.000000 0.000000 0.000000 NONE 0 0 0 0 1 0 0 0 0 0 0 0 0
