#	Name:			PISM00406
#	Creating user name:	malab
#	Creation time:		Tue Apr 02 18:16:29 2019

#	Modifying user name:	malab
#	Modification time:	Tue Apr 02 18:16:40 2019

@<TRIPOS>MOLECULE
PISM00406
   38    39     1     1     0
SMALL
GAST_HUCK


@<TRIPOS>ATOM
      1 C1         -3.4143    6.3547    1.0748 C.3       1 <1>         0.0048 
      2 C2         -2.6394    6.0211   -0.2302 C.3       1 <1>        -0.0551 
      3 C3         -2.3763    6.5235    2.2290 C.3       1 <1>        -0.0551 
      4 C4         -4.3162    5.1347    1.4356 C.3       1 <1>        -0.0551 
      5 C5         -4.2645    7.6627    0.8681 C.3       1 <1>         0.1337 
      6 C6         -5.2706    7.5663   -0.2836 C.2       1 <1>         0.1377 
      7 C7         -4.9893    7.9408   -1.5479 C.2       1 <1>        -0.0327 
      8 N8         -6.4897    7.1077   -0.0887 N.pl3     1 <1>        -0.1215 
      9 C9         -7.0638    6.7250    1.0197 C.2       1 <1>         0.1499 
     10 N10        -8.2449    6.3544    0.8167 N.2       1 <1>        -0.2821 
     11 C11        -8.5820    6.4777   -0.5696 C.2       1 <1>         0.0658 
     12 N12        -7.4769    6.9382   -1.0205 N.2       1 <1>        -0.1721 
     13 C13        -3.7218    8.5820   -2.0741 C.ar      1 <1>        -0.0369 
     14 C14        -3.3716    9.8757   -1.6754 C.ar      1 <1>        -0.0669 
     15 C15        -2.1454   10.4282   -2.0538 C.ar      1 <1>        -0.0569 
     16 C16        -1.2837    9.7045   -2.8810 C.ar      1 <1>         0.0318 
     17 C17        -1.6791    8.4580   -3.3731 C.ar      1 <1>        -0.0432 
     18 C18        -2.9079    7.9109   -2.9946 C.ar      1 <1>         0.0342 
     19 Cl19       -3.4180    6.3858   -3.6930 Cl        1 <1>        -0.0782 
     20 Cl20        0.2849   10.3594   -3.3002 Cl        1 <1>        -0.0782 
     21 O21        -3.4218    8.8122    0.6701 O.3       1 <1>        -0.3710 
     22 H1         -3.3448    5.7539   -1.0276 H         1 <1>         0.0238 
     23 H2         -1.9598    5.1677   -0.0822 H         1 <1>         0.0238 
     24 H3         -2.0393    6.8849   -0.5529 H         1 <1>         0.0238 
     25 H4         -1.9089    5.5586    2.4810 H         1 <1>         0.0238 
     26 H5         -2.8656    6.9114    3.1364 H         1 <1>         0.0238 
     27 H6         -1.5608    7.2061    1.9472 H         1 <1>         0.0238 
     28 H7         -4.8106    5.2895    2.4051 H         1 <1>         0.0238 
     29 H8         -3.7137    4.2179    1.5174 H         1 <1>         0.0238 
     30 H9         -5.0792    4.9547    0.6645 H         1 <1>         0.0238 
     31 H10        -4.8057    7.8959    1.7965 H         1 <1>         0.0853 
     32 H11        -5.7196    7.8098   -2.3448 H         1 <1>         0.0313 
     33 H12        -6.6938    6.6873    2.0387 H         1 <1>         0.1391 
     34 H13        -9.5122    6.2496   -1.0908 H         1 <1>         0.0882 
     35 H14        -4.0580   10.4576   -1.0688 H         1 <1>         0.0542 
     36 H15        -1.8630   11.4167   -1.7076 H         1 <1>         0.0601 
     37 H16        -1.0322    7.9157   -4.0534 H         1 <1>         0.0606 
     38 H17        -2.8408    9.0459    1.3870 H         1 <1>         0.2142 
@<TRIPOS>BOND
     1    2    1 1    
     2    1    3 1    
     3    1    4 1    
     4    1    5 1    
     5    5    6 1    
     6    6    7 2    
     7    6    8 1    
     8    8    9 1    
     9    9   10 2    
    10   10   11 1    
    11   11   12 2    
    12    8   12 1    
    13    7   13 1    
    14   13   14 ar   
    15   14   15 ar   
    16   15   16 ar   
    17   16   17 ar   
    18   17   18 ar   
    19   13   18 ar   
    20   18   19 1    
    21   16   20 1    
    22    5   21 1    
    23    2   22 1    
    24    2   23 1    
    25    2   24 1    
    26    3   25 1    
    27    3   26 1    
    28    3   27 1    
    29    4   28 1    
    30    4   29 1    
    31    4   30 1    
    32    5   31 1    
    33    7   32 1    
    34    9   33 1    
    35   11   34 1    
    36   14   35 1    
    37   15   36 1    
    38   17   37 1    
    39   21   38 1    
@<TRIPOS>SUBSTRUCTURE
     1 ****        2 TEMP              0 ****  ****    0 ROOT 
@<TRIPOS>NORMAL
@<TRIPOS>FF_PBC
FORCE_FIELD_SETUP_FEATURE Force Field Setup information
v1.0  0 0.000000 0.000000 0.000000 0.000000 0.000000 0.000000 NONE 0 0 0 0 1 0 0 0 0 0 0 0 0
