#	Name:			PISM00185
#	Creating user name:	14062
#	Creation time:		Mon Apr 01 21:03:39 2019

#	Modifying user name:	14062
#	Modification time:	Mon Apr 01 21:04:36 2019

@<TRIPOS>MOLECULE
PISM00185
   31    32     1     2     0
SMALL
GAST_HUCK


@<TRIPOS>ATOM
      1 C1         -1.0695   -2.9503    0.5080 C.ar      1 <1>        -0.0768 
      2 C2          0.2037   -3.5267    0.6406 C.ar      1 <1>        -0.0748 
      3 C3          1.3641   -2.7972    0.3481 C.ar      1 <1>        -0.0467 
      4 C4          1.2038   -1.4798   -0.0816 C.ar      1 <1>         0.0450 
      5 C5         -0.0531   -0.9300   -0.2277 C.ar      1 <1>        -0.0185 
      6 C6         -1.2229   -1.6291    0.0668 C.ar      1 <1>        -0.0716 
      7 C7          0.2864    0.4432   -0.7361 C.2       1 <1>        -0.0224 
      8 C8          1.6277    0.5111   -0.8021 C.2       1 <1>         0.0040 
      9 N9          2.2602   -0.6047   -0.4041 N.3       1 <1>        -0.2350 
     10 C10        -0.7214    1.5026   -1.1069 C.3       1 <1>         0.0784 
     11 C11        -0.0417    2.8570   -1.1663 C.2       1 <1>         0.2403 
     12 O12         0.2023    3.4056   -2.2272 O.2       1 <1>        -0.3685 
     13 O13         0.3212    3.4616   -0.0303 O.3       1 <1>        -0.2916 
     14 C14        -1.3725    1.1033   -2.4610 C.3       1 <1>        -0.0273 
     15 H1         -1.9505   -3.5375    0.7502 H         1 <1>         0.0524 
     16 H2          0.2929   -4.5559    0.9750 H         1 <1>         0.0543 
     17 H3          2.3513   -3.2341    0.4488 H         1 <1>         0.0548 
     18 H4         -2.2000   -1.1721   -0.0412 H         1 <1>         0.0551 
     19 H5          2.1716    1.3888   -1.1545 H         1 <1>         0.0760 
     20 H6          2.8408   -0.3997    0.4855 H         1 <1>         0.1886 
     21 H7         -1.4996    1.5260   -0.3283 H         1 <1>         0.0644 
     22 H8          0.1300    2.9759    0.7619 H         1 <1>         0.2540 
     23 H9         -1.7543    0.0723   -2.3859 H         1 <1>         0.0308 
     24 H10        -0.6067    1.1225   -3.2533 H         1 <1>         0.0308 
     25 H11        -2.2095    3.0742   -2.9445 H         1 <1>         0.0265 
     26 C26        -2.5571    2.0336   -2.8441 C.3       1 <1>        -0.0524 
     27 H12        -3.3203    2.0030   -2.0483 H         1 <1>         0.0265 
     28 H13        -2.4733    1.6555   -5.0030 H         1 <1>         0.0230 
     29 C29        -3.2065    1.5968   -4.1837 C.3       1 <1>        -0.0650 
     30 H14        -4.0541    2.2573   -4.4261 H         1 <1>         0.0230 
     31 H15        -3.5782    0.5625   -4.1151 H         1 <1>         0.0230 
@<TRIPOS>BOND
     1    2    1 ar   
     2    2    3 ar   
     3    3    4 ar   
     4    4    5 ar   
     5    5    6 ar   
     6    1    6 ar   
     7    5    7 1    
     8    7    8 2    
     9    8    9 1    
    10    4    9 1    
    11    7   10 1    
    12   10   11 1    
    13   11   12 2    
    14   11   13 1    
    15   10   14 1    
    16    1   15 1    
    17    2   16 1    
    18    3   17 1    
    19    6   18 1    
    20    8   19 1    
    21    9   20 1    
    22   10   21 1    
    23   13   22 1    
    24   14   23 1    
    25   14   24 1    
    26   26   25 1    
    27   14   26 1    
    28   26   27 1    
    29   29   28 1    
    30   26   29 1    
    31   29   30 1    
    32   29   31 1    
@<TRIPOS>SUBSTRUCTURE
     1 ****        2 TEMP              0 ****  ****    0 ROOT 
@<TRIPOS>NORMAL
@<TRIPOS>FF_PBC
FORCE_FIELD_SETUP_FEATURE Force Field Setup information
v1.0  0 0.000000 0.000000 0.000000 0.000000 0.000000 0.000000 NONE 0 0 0 0 1 0 0 0 0 0 0 0 0
@<TRIPOS>RENDERING_ATTRS
ANTIALIASED_LINES 
1,2,3,4,5,6,7,8,9,10,11,12,13,14,15,16,17,18,19,20,21,22,23,24,25
