#	Name:			PISM00165.1
#	Creating user name:	14062
#	Creation time:		Sun Mar 31 13:47:55 2019

#	Modifying user name:	14062
#	Modification time:	Sun Mar 31 13:55:36 2019

@<TRIPOS>MOLECULE
PISM00165.1
   41    43     1     1     0
SMALL
GAST_HUCK


@<TRIPOS>ATOM
      1 C1          7.0145   10.8907   -8.1417 C.2       1 BENZYL     -0.0628 
      2 C1          7.8620   11.6148   -7.3958 C.2       1 BENZYL     -0.0579 
      3 C2          9.3547   11.7546   -7.6383 C.ar      1 BENZYL     -0.0280 
      4 C3         10.0866   10.9003   -8.4752 C.ar      1 BENZYL     -0.0559 
      5 C4         11.4571   11.0960   -8.6748 C.ar      1 BENZYL     -0.0622 
      6 C5         12.1230   12.1298   -8.0121 C.ar      1 BENZYL     -0.0626 
      7 C6         11.4102   12.9733   -7.1572 C.ar      1 BENZYL     -0.0622 
      8 C7         10.0354   12.7875   -6.9810 C.ar      1 BENZYL     -0.0559 
      9 C9          5.5751   10.7828   -7.8109 C.2       1 BENZYL     -0.0329 
     10 C10         4.7245    9.9302   -8.3972 C.2       1 BENZYL      0.1257 
     11 C11         3.3012    9.7783   -8.0806 C.2       1 BENZYL      0.2629 
     12 N12         2.7122    8.8182   -8.8185 N.am      1 BENZYL     -0.1499 
     13 C13         3.4988    8.1910   -9.7242 C.2       1 BENZYL      0.1693 
     14 S14         5.1800    8.7953   -9.6805 S.3       1 BENZYL      0.0309 
     15 O15         2.7489   10.4547   -7.2297 O.2       1 BENZYL     -0.3682 
     16 S16         2.9966    6.9640  -10.8048 S.2       1 BENZYL     -0.2503 
     17 C17         1.2859    8.5197   -8.6722 C.3       1 BENZYL      0.2061 
     18 C18         0.4989    9.5624   -9.4306 C.2       1 BENZYL      0.2762 
     19 O19         0.8983   10.7069   -9.5709 O.2       1 BENZYL     -0.3642 
     20 O20        -0.6640    9.1612   -9.9492 O.3       1 BENZYL     -0.2890 
     21 C21         0.8777    8.3654   -7.1970 C.ar      1 BENZYL      0.0093 
     22 C22         1.7813    7.7929   -6.2933 C.ar      1 BENZYL     -0.0550 
     23 C23         1.4579    7.6756   -4.9380 C.ar      1 BENZYL     -0.0680 
     24 C24         0.2118    8.1068   -4.4771 C.ar      1 BENZYL     -0.0684 
     25 C25        -0.7108    8.6448   -5.3782 C.ar      1 BENZYL     -0.0680 
     26 C26        -0.3803    8.7700   -6.7315 C.ar      1 BENZYL     -0.0550 
     27 H1          7.3664   10.3581   -9.0211 H         1 BENZYL      0.0614 
     28 H2          7.4514   12.1530   -6.5407 H         1 BENZYL      0.0590 
     29 H3          9.6142   10.0658   -8.9782 H         1 BENZYL      0.0615 
     30 H4         12.0091   10.4415   -9.3437 H         1 BENZYL      0.0615 
     31 H5         13.1903   12.2745   -8.1567 H         1 BENZYL      0.0610 
     32 H6         11.9233   13.7723   -6.6303 H         1 BENZYL      0.0615 
     33 H7          9.4970   13.4616   -6.3224 H         1 BENZYL      0.0615 
     34 H8          5.1700   11.4307   -7.0325 H         1 BENZYL      0.0599 
     35 H9          1.0314    7.5398   -9.1012 H         1 BENZYL      0.1058 
     36 H10        -1.1020    9.8749  -10.4008 H         1 BENZYL      0.2542 
     37 H11         2.7440    7.4299   -6.6385 H         1 BENZYL      0.0562 
     38 H12         2.1735    7.2450   -4.2448 H         1 BENZYL      0.0600 
     39 H13        -0.0400    8.0203   -3.4247 H         1 BENZYL      0.0561 
     40 H14        -1.6865    8.9631   -5.0248 H         1 BENZYL      0.0600 
     41 H15        -1.1178    9.1803   -7.4104 H         1 BENZYL      0.0562 
@<TRIPOS>BOND
     1    2    3 1    
     2    3    4 ar   
     3    3    8 ar   
     4    8    7 ar   
     5    7    6 ar   
     6    6    5 ar   
     7    5    4 ar   
     8    2    1 2    
     9    1    9 1    
    10    9   10 2    
    11   10   11 1    
    12   11   12 am   
    13   12   13 am   
    14   13   14 1    
    15   10   14 1    
    16   11   15 2    
    17   13   16 2    
    18   12   17 1    
    19   17   18 1    
    20   18   19 2    
    21   18   20 1    
    22   17   21 1    
    23   21   22 ar   
    24   22   23 ar   
    25   23   24 ar   
    26   24   25 ar   
    27   25   26 ar   
    28   26   21 ar   
    29    1   27 1    
    30    2   28 1    
    31    4   29 1    
    32    5   30 1    
    33    6   31 1    
    34    7   32 1    
    35    8   33 1    
    36    9   34 1    
    37   17   35 1    
    38   20   36 1    
    39   22   37 1    
    40   23   38 1    
    41   24   39 1    
    42   25   40 1    
    43   26   41 1    
@<TRIPOS>SUBSTRUCTURE
     1 BENZYL      2 PERM              0 ****  ****    0 ROOT 
@<TRIPOS>NORMAL
@<TRIPOS>FF_PBC
FORCE_FIELD_SETUP_FEATURE Force Field Setup information
v1.0  0 0.000000 0.000000 0.000000 0.000000 0.000000 0.000000 NONE 0 0 0 0 1 0 0 0 0 0 0 0 0
