#	Name:			PISM01216
#	Creating user name:	14062
#	Creation time:		Sun Oct 20 20:57:17 2019

#	Modifying user name:	14062
#	Modification time:	Sun Oct 20 20:58:37 2019

@<TRIPOS>MOLECULE
PISM01216
    5     3     1     1     0
SMALL
GAST_HUCK


@<TRIPOS>ATOM
      1 AG          0.6160    0.0000    0.0000 Ag        0 <0>        -6.0000 
      2 O           0.0000    4.0000    0.0000 O.co2     1 <1>        -0.4396 
      3 O           0.8660    2.5000    0.0000 O.co2     1 <1>        -0.4396 
      4 O           1.7320    4.0000    0.0000 O.2       1 <1>        -0.1508 
      5 N           0.8660    3.5000    0.0000 N.pl3     1 <1>         0.0299 
@<TRIPOS>BOND
     1    2    5 1    
     2    5    3 1    
     3    5    4 2    
@<TRIPOS>SUBSTRUCTURE
     1 ****        2 TEMP              0 ****  ****    0 ROOT 
@<TRIPOS>NORMAL
@<TRIPOS>RENDERING_ATTRS
BALL_AND_STICK  
*
