#	Name:			PISM00577
#	Creating user name:	malab
#	Creation time:		Thu Apr 04 22:12:02 2019

#	Modifying user name:	malab
#	Modification time:	Thu Apr 04 22:13:18 2019

@<TRIPOS>MOLECULE
PISM00577
   24    25     1     1     0
SMALL
USER_CHARGES


@<TRIPOS>ATOM
      1 C1         28.2860    9.6539   -8.5369 C.2       1 <1>         0.0000 
      2 C2         27.8660    9.1119   -7.3869 C.2       1 <1>         0.0000 
      3 C3         27.0562    9.8682   -6.3643 C.3       1 <1>         0.0000 
      4 O4         25.9271    9.0550   -5.9927 O.3       1 <1>         0.0000 
      5 C5         25.1474    9.6177   -5.0592 C.2       1 <1>         0.0000 
      6 N6         25.3250   10.7693   -4.5507 N.2       1 <1>         0.0000 
      7 C7         23.9419    8.8964   -4.5058 C.ar      1 <1>         0.0000 
      8 C8         23.2595    9.6294   -3.5356 C.ar      1 <1>         0.0000 
      9 S9         23.9690   11.2178   -3.2177 S.o2      1 <1>         0.0000 
     10 O10        24.5574   11.2506   -1.8937 O.2       1 <1>         0.0000 
     11 O11        23.0977   12.2644   -3.7147 O.2       1 <1>         0.0000 
     12 C12        22.1283    9.1043   -2.9090 C.ar      1 <1>         0.0000 
     13 C13        21.6863    7.8286   -3.2767 C.ar      1 <1>         0.0000 
     14 C14        22.3660    7.0956   -4.2578 C.ar      1 <1>         0.0000 
     15 C15        23.5012    7.6257   -4.8813 C.ar      1 <1>         0.0000 
     16 H1         28.0636   10.6883   -8.7981 H         1 <1>         0.0000 
     17 H2         28.8698    9.0664   -9.2452 H         1 <1>         0.0000 
     18 H3         28.1192    8.0735   -7.1657 H         1 <1>         0.0000 
     19 H4         26.7144   10.8371   -6.7646 H         1 <1>         0.0000 
     20 H5         27.7014   10.0467   -5.4887 H         1 <1>         0.0000 
     21 H6         21.6066    9.6793   -2.1518 H         1 <1>         0.0000 
     22 H7         20.8097    7.4039   -2.7973 H         1 <1>         0.0000 
     23 H8         22.0109    6.1087   -4.5375 H         1 <1>         0.0000 
     24 H9         24.0315    7.0624   -5.6419 H         1 <1>         0.0000 
@<TRIPOS>BOND
     1    2    1 2    
     2    2    3 1    
     3    3    4 1    
     4    4    5 1    
     5    5    6 2    
     6    5    7 1    
     7    7    8 ar   
     8    8    9 1    
     9    6    9 1    
    10    9   10 2    
    11    9   11 2    
    12    8   12 ar   
    13   12   13 ar   
    14   13   14 ar   
    15   14   15 ar   
    16    7   15 ar   
    17    1   16 1    
    18    1   17 1    
    19    2   18 1    
    20    3   19 1    
    21    3   20 1    
    22   12   21 1    
    23   13   22 1    
    24   14   23 1    
    25   15   24 1    
@<TRIPOS>SUBSTRUCTURE
     1 ****        2 TEMP              0 ****  ****    0 ROOT 
@<TRIPOS>NORMAL
@<TRIPOS>FF_PBC
FORCE_FIELD_SETUP_FEATURE Force Field Setup information
v1.0  0 0.000000 0.000000 0.000000 0.000000 0.000000 0.000000 NONE 0 0 0 0 0 0 0 0 0 0 0 0 0
