#	Name:			PISM00810.1
#	Creating user name:	baoopengkun
#	Creation time:		Wed Jan 09 15:22:09 2019

#	Modifying user name:	baoopengkun
#	Modification time:	Wed Jan 09 15:25:37 2019

@<TRIPOS>MOLECULE
PISM00810.1
   36    37     1     1     0
SMALL
GAST_HUCK


@<TRIPOS>ATOM
      1 C1          1.5593    2.1651    2.7538 C.ar      1 <1>         0.1323 
      2 N2          1.8699    3.0114    3.7690 N.pl3     1 <1>         0.1201 
      3 O3          1.0541    3.1605    4.6528 O.2       1 <1>        -0.1133 
      4 O4          2.9610    3.5389    3.7563 O.2       1 <1>        -0.1133 
      5 C5          0.7637    1.0394    3.0041 C.ar      1 <1>        -0.0426 
      6 C6          0.5141    0.1034    1.9970 C.ar      1 <1>        -0.0798 
      7 C7          1.0551    0.2919    0.7235 C.ar      1 <1>        -0.0818 
      8 C8          1.8043    1.4390    0.4512 C.ar      1 <1>        -0.0743 
      9 C9          2.0329    2.3901    1.4522 C.ar      1 <1>        -0.0003 
     10 C10         2.7747    3.6640    1.1053 C.2       1 <1>         0.0774 
     11 C11         2.1511    4.9474    1.4818 C.2       1 <1>         0.2383 
     12 O12         0.9321    4.9463    2.0412 O.3       1 <1>        -0.2865 
     13 C13         0.4491    6.2553    2.3998 C.3       1 <1>         0.0638 
     14 O14         2.7577    5.9879    1.2785 O.2       1 <1>        -0.3766 
     15 C15         3.9585    3.6103    0.4809 C.2       1 <1>         0.0991 
     16 O16         4.4968    2.4178    0.1802 O.3       1 <1>        -0.2546 
     17 C17         5.7963    2.4919   -0.4320 C.3       1 <1>         0.2442 
     18 C18         6.8203    3.1039    0.4941 C.2       1 <1>         0.0002 
     19 C19         7.3829    4.1669   -0.0779 C.2       1 <1>         0.0293 
     20 C20         6.7164    4.2546   -1.3737 C.2       1 <1>         0.2496 
     21 O21         6.9810    5.1192   -2.1905 O.2       1 <1>        -0.3691 
     22 O22         5.7913    3.3299   -1.6055 O.3       1 <1>        -0.2295 
     23 C23         8.4432    5.0726    0.4859 C.3       1 <1>        -0.0323 
     24 H1          0.3388    0.8770    3.9896 H         1 <1>         0.0495 
     25 H2         -0.0968   -0.7702    2.2039 H         1 <1>         0.0529 
     26 H3          0.8899   -0.4487   -0.0533 H         1 <1>         0.0491 
     27 H4          2.1977    1.5902   -0.5492 H         1 <1>         0.0518 
     28 H5          0.3569    6.9054    1.5151 H         1 <1>         0.0574 
     29 H6          1.1092    6.7331    3.1414 H         1 <1>         0.0574 
     30 H7         -0.5477    6.1350    2.8488 H         1 <1>         0.0574 
     31 H8          4.4503    4.5565    0.2430 H         1 <1>         0.1269 
     32 H9          6.1136    1.4743   -0.7115 H         1 <1>         0.1223 
     33 H10         7.0600    2.7250    1.4869 H         1 <1>         0.0707 
     34 H11         8.2205    5.3062    1.5379 H         1 <1>         0.0347 
     35 H12         8.4837    6.0119   -0.0860 H         1 <1>         0.0347 
     36 H13         9.4220    4.5742    0.4260 H         1 <1>         0.0347 
@<TRIPOS>BOND
     1    2    1 1    
     2    2    3 2    
     3    2    4 2    
     4    1    5 ar   
     5    5    6 ar   
     6    6    7 ar   
     7    7    8 ar   
     8    8    9 ar   
     9    1    9 ar   
    10    9   10 1    
    11   10   11 1    
    12   11   12 1    
    13   12   13 1    
    14   11   14 2    
    15   10   15 2    
    16   15   16 1    
    17   16   17 1    
    18   17   18 1    
    19   18   19 2    
    20   19   20 1    
    21   20   21 2    
    22   20   22 1    
    23   17   22 1    
    24   19   23 1    
    25    5   24 1    
    26    6   25 1    
    27    7   26 1    
    28    8   27 1    
    29   13   28 1    
    30   13   29 1    
    31   13   30 1    
    32   15   31 1    
    33   17   32 1    
    34   18   33 1    
    35   23   34 1    
    36   23   35 1    
    37   23   36 1    
@<TRIPOS>SUBSTRUCTURE
     1 ****        2 TEMP              0 ****  ****    0 ROOT 
@<TRIPOS>NORMAL
@<TRIPOS>FF_PBC
FORCE_FIELD_SETUP_FEATURE Force Field Setup information
v1.0  0 0.000000 0.000000 0.000000 0.000000 0.000000 0.000000 NONE 0 0 0 0 1 0 0 0 0 0 0 0 0
