#	Name:			PISM00798
#	Creating user name:	baoopengkun
#	Creation time:		Sat Dec 15 02:06:24 2018

#	Modifying user name:	baoopengkun
#	Modification time:	Sat Dec 15 02:12:05 2018

@<TRIPOS>MOLECULE
PISM00798
   45    48     1     1     0
SMALL
GAST_HUCK


@<TRIPOS>ATOM
      1 C1          9.0203   17.3796  -41.9654 C.ar      1 <1>        -0.0355 
      2 C2          8.9644   18.6895  -41.4687 C.ar      1 <1>        -0.0401 
      3 C3          9.5598   19.8296  -42.3310 C.3       1 <1>         0.0022 
      4 C4          9.8200   21.1584  -41.5672 C.3       1 <1>        -0.0506 
      5 C5          8.3581   18.9050  -40.2231 C.ar      1 <1>        -0.0677 
      6 C6         10.8665   19.3737  -43.0433 C.3       1 <1>         0.0070 
      7 C7         10.6209   18.0607  -43.7355 C.2       1 <1>        -0.0208 
      8 C8          9.7900   17.1446  -43.2440 C.2       1 <1>         0.0134 
      9 C9          7.7534   17.8509  -39.5318 C.ar      1 <1>        -0.0766 
     10 C10         7.7537   16.5633  -40.0727 C.ar      1 <1>        -0.0773 
     11 C11         9.8201   15.9807  -44.1295 C.2       1 <1>         0.1023 
     12 C12        10.8033   16.2820  -45.1737 C.2       1 <1>         0.0350 
     13 C13        11.3206   17.6955  -45.0276 C.3       1 <1>         0.0288 
     14 O14         9.1723   14.9510  -44.0430 O.2       1 <1>        -0.4178 
     15 C15        10.8545   18.5769  -46.2154 C.3       1 <1>        -0.0419 
     16 C16        11.1896   15.4187  -46.1184 C.2       1 <1>         0.0856 
     17 O17        12.1052   15.7940  -47.0226 O.3       1 <1>        -0.2653 
     18 C18        12.4030   14.7723  -47.9883 C.3       1 <1>         0.2405 
     19 C19        13.5339   15.2682  -48.8552 C.2       1 <1>        -0.0006 
     20 C20        14.6077   14.4942  -48.7118 C.2       1 <1>         0.0293 
     21 C21        14.1732   13.4826  -47.7547 C.2       1 <1>         0.2496 
     22 O22        12.9214   13.5988  -47.3292 O.3       1 <1>        -0.2302 
     23 C23        15.9474   14.6309  -49.3822 C.3       1 <1>        -0.0323 
     24 O24        14.9027   12.5847  -47.3711 O.2       1 <1>        -0.3691 
     25 C25         8.3928   16.3271  -41.2917 C.ar      1 <1>        -0.0726 
     26 H1          8.8093   20.0324  -43.1145 H         1 <1>         0.0482 
     27 H2         10.4695   20.9757  -40.6973 H         1 <1>         0.0256 
     28 H3          8.8773   21.6153  -41.2294 H         1 <1>         0.0256 
     29 H4         10.3171   21.8891  -42.2239 H         1 <1>         0.0256 
     30 H5          8.3380   19.8862  -39.7667 H         1 <1>         0.0532 
     31 H6         11.1945   20.1442  -43.7566 H         1 <1>         0.0537 
     32 H7         11.6665   19.2229  -42.3020 H         1 <1>         0.0537 
     33 H8          7.2798   18.0321  -38.5715 H         1 <1>         0.0532 
     34 H9          7.2625   15.7499  -39.5472 H         1 <1>         0.0539 
     35 H10        12.4159   17.7032  -44.9061 H         1 <1>         0.0642 
     36 H11         9.7553   18.5725  -46.2801 H         1 <1>         0.0281 
     37 H12        11.2630   18.1951  -47.1628 H         1 <1>         0.0281 
     38 H13        11.1969   19.6148  -46.0944 H         1 <1>         0.0281 
     39 H14        10.7298   14.4269  -46.1012 H         1 <1>         0.1149 
     40 H15        11.5276   14.5164  -48.6093 H         1 <1>         0.1215 
     41 H16        13.4768   16.1424  -49.5025 H         1 <1>         0.0706 
     42 H17        16.6026   13.7925  -49.1022 H         1 <1>         0.0347 
     43 H18        16.4216   15.5737  -49.0717 H         1 <1>         0.0347 
     44 H19        15.8192   14.6337  -50.4749 H         1 <1>         0.0347 
     45 H20         8.4024   15.3244  -41.7039 H         1 <1>         0.0523 
@<TRIPOS>BOND
     1    8    1 1    
     2    1    2 ar   
     3    2    3 1    
     4    6    3 1    
     5    3    4 1    
     6    2    5 ar   
     7    6    7 1    
     8    7    8 2    
     9    5    9 ar   
    10    9   10 ar   
    11   10   25 ar   
    12    8   11 1    
    13   12   11 1    
    14   13   12 1    
    15    7   13 1    
    16   11   14 2    
    17   13   15 1    
    18   12   16 2    
    19   16   17 1    
    20   17   18 1    
    21   18   19 1    
    22   19   20 2    
    23   21   20 1    
    24   22   21 1    
    25   18   22 1    
    26   20   23 1    
    27   21   24 2    
    28    1   25 ar   
    29    3   26 1    
    30    4   27 1    
    31    4   28 1    
    32    4   29 1    
    33    5   30 1    
    34    6   31 1    
    35    6   32 1    
    36    9   33 1    
    37   10   34 1    
    38   13   35 1    
    39   15   36 1    
    40   15   37 1    
    41   15   38 1    
    42   16   39 1    
    43   18   40 1    
    44   19   41 1    
    45   23   42 1    
    46   23   43 1    
    47   23   44 1    
    48   25   45 1    
@<TRIPOS>SUBSTRUCTURE
     1 ****        6 TEMP              0 ****  ****    0 ROOT 
@<TRIPOS>NORMAL
@<TRIPOS>FF_PBC
FORCE_FIELD_SETUP_FEATURE Force Field Setup information
v1.0  0 0.000000 0.000000 0.000000 0.000000 0.000000 0.000000 NONE 0 0 0 0 1 0 0 0 0 0 0 0 0
