#	Name:			PISM00272
#	Creating user name:	baoopengkun
#	Creation time:		Sun Mar 31 17:37:08 2019

#	Modifying user name:	baoopengkun
#	Modification time:	Sun Mar 31 17:39:03 2019

@<TRIPOS>MOLECULE
PISM00272
   51    52     1     1     0
SMALL
GAST_HUCK


@<TRIPOS>ATOM
      1 C1         -6.0590    4.9192   -4.5009 C.ar      1 <1>        -0.0795 
      2 C2         -4.7613    5.3870   -4.7282 C.ar      1 <1>        -0.0432 
      3 C3         -3.7003    4.4811   -4.8593 C.ar      1 <1>         0.1176 
      4 C4         -3.9658    3.1088   -4.7852 C.ar      1 <1>         0.1167 
      5 C5         -5.2674    2.6429   -4.5886 C.ar      1 <1>        -0.0403 
      6 C6         -6.3219    3.5476   -4.4356 C.ar      1 <1>        -0.0595 
      7 O7         -2.3761    4.9056   -5.0560 O.3       1 <1>        -0.3259 
      8 C8         -2.0356    6.2886   -5.2417 C.3       1 <1>         0.0567 
      9 O9         -2.9229    2.1879   -4.8944 O.3       1 <1>        -0.3256 
     10 C10        -2.3300    1.8856   -3.6221 C.3       1 <1>         0.0568 
     11 C11        -7.7414    3.0845   -4.1925 C.2       1 <1>        -0.0763 
     12 C12        -8.2564    1.9871   -4.7615 C.2       1 <1>        -0.0657 
     13 C13        -9.6774    1.5352   -4.5247 C.3       1 <1>         0.0326 
     14 N14       -10.5249    1.7290   -5.7315 N.3       1 <1>        -0.2603 
     15 C15       -10.7132    3.1465   -6.1416 C.3       1 <1>         0.1046 
     16 C16       -11.3232    3.9840   -5.0496 C.2       1 <1>         0.2482 
     17 O17       -12.5269    3.9878   -4.8422 O.2       1 <1>        -0.3690 
     18 O18       -10.4521    4.7033   -4.3300 O.3       1 <1>        -0.2792 
     19 C19       -11.0610    5.4711   -3.2762 C.3       1 <1>         0.0658 
     20 C20       -10.2557    0.8120   -6.8664 C.3       1 <1>         0.0358 
     21 C21       -10.3685   -0.6539   -6.4343 C.ar      1 <1>        -0.0324 
     22 C22        -9.3878   -1.5901   -6.7822 C.ar      1 <1>        -0.0608 
     23 C23        -9.5088   -2.9190   -6.3666 C.ar      1 <1>        -0.0349 
     24 C24       -10.6079   -3.3162   -5.6007 C.ar      1 <1>         0.1248 
     25 C25       -11.5895   -2.3851   -5.2540 C.ar      1 <1>        -0.0349 
     26 C26       -11.4725   -1.0578   -5.6759 C.ar      1 <1>        -0.0608 
     27 F27       -10.7195   -4.5808   -5.2023 F         1 <1>        -0.1893 
     28 H1         -6.8713    5.6305   -4.3801 H         1 <1>         0.0472 
     29 H2         -4.6077    6.4558   -4.7976 H         1 <1>         0.0508 
     30 H3         -5.4386    1.5739   -4.5435 H         1 <1>         0.0473 
     31 H4         -2.2847    6.8842   -4.3500 H         1 <1>         0.0573 
     32 H5         -2.5411    6.6995   -6.1291 H         1 <1>         0.0573 
     33 H6         -0.9494    6.3433   -5.4018 H         1 <1>         0.0573 
     34 H7         -1.5111    1.1687   -3.7798 H         1 <1>         0.0573 
     35 H8         -3.0727    1.4321   -2.9468 H         1 <1>         0.0573 
     36 H9         -1.9216    2.7969   -3.1566 H         1 <1>         0.0573 
     37 H10        -8.3432    3.7018   -3.5281 H         1 <1>         0.0412 
     38 H11        -7.6458    1.3848   -5.4342 H         1 <1>         0.0691 
     39 H12       -10.1309    2.0771   -3.6806 H         1 <1>         0.0619 
     40 H13        -9.6480    0.4771   -4.2235 H         1 <1>         0.0619 
     41 H14       -11.4062    3.2152   -6.9946 H         1 <1>         0.0688 
     42 H15        -9.7521    3.5870   -6.4491 H         1 <1>         0.0688 
     43 H16       -10.2552    5.9844   -2.7307 H         1 <1>         0.0577 
     44 H17       -11.6059    4.8270   -2.5674 H         1 <1>         0.0577 
     45 H18       -11.7452    6.2295   -3.6873 H         1 <1>         0.0577 
     46 H19        -9.2723    1.0342   -7.3087 H         1 <1>         0.0585 
     47 H20       -11.0163    0.9403   -7.6525 H         1 <1>         0.0585 
     48 H21        -8.5298   -1.2917   -7.3760 H         1 <1>         0.0548 
     49 H22        -8.7510   -3.6475   -6.6364 H         1 <1>         0.0587 
     50 H23       -12.4410   -2.6961   -4.6569 H         1 <1>         0.0587 
     51 H24       -12.2414   -0.3383   -5.4118 H         1 <1>         0.0548 
@<TRIPOS>BOND
     1    2    1 ar   
     2    2    3 ar   
     3    3    4 ar   
     4    4    5 ar   
     5    5    6 ar   
     6    1    6 ar   
     7    3    7 1    
     8    7    8 1    
     9    4    9 1    
    10    9   10 1    
    11    6   11 1    
    12   11   12 2    
    13   12   13 1    
    14   13   14 1    
    15   14   15 1    
    16   15   16 1    
    17   16   17 2    
    18   16   18 1    
    19   18   19 1    
    20   14   20 1    
    21   20   21 1    
    22   21   22 ar   
    23   22   23 ar   
    24   23   24 ar   
    25   24   25 ar   
    26   25   26 ar   
    27   21   26 ar   
    28   24   27 1    
    29    1   28 1    
    30    2   29 1    
    31    5   30 1    
    32    8   31 1    
    33    8   32 1    
    34    8   33 1    
    35   10   34 1    
    36   10   35 1    
    37   10   36 1    
    38   11   37 1    
    39   12   38 1    
    40   13   39 1    
    41   13   40 1    
    42   15   41 1    
    43   15   42 1    
    44   19   43 1    
    45   19   44 1    
    46   19   45 1    
    47   20   46 1    
    48   20   47 1    
    49   22   48 1    
    50   23   49 1    
    51   25   50 1    
    52   26   51 1    
@<TRIPOS>SUBSTRUCTURE
     1 ****        2 TEMP              0 ****  ****    0 ROOT 
@<TRIPOS>NORMAL
@<TRIPOS>FF_PBC
FORCE_FIELD_SETUP_FEATURE Force Field Setup information
v1.0  0 0.000000 0.000000 0.000000 0.000000 0.000000 0.000000 NONE 0 0 0 0 1 0 0 0 0 0 0 0 0
