#	Name:			PISM00190
#	Creating user name:	14062
#	Creation time:		Fri Jul 12 13:37:48 2019

#	Modifying user name:	14062
#	Modification time:	Fri Jul 12 13:37:48 2019

@<TRIPOS>MOLECULE
PISM00190
   57    58     1     1     0
SMALL
GAST_HUCK


@<TRIPOS>ATOM
      1 C1         -3.8924    2.5567    0.5757 C.ar      1 <1>        -0.0768 
      2 C2         -2.8856    2.1274    1.4540 C.ar      1 <1>        -0.0748 
      3 C3         -1.6797    2.8312    1.5700 C.ar      1 <1>        -0.0467 
      4 C4         -1.5181    3.9690    0.7793 C.ar      1 <1>         0.0450 
      5 C5         -2.5067    4.3755   -0.0949 C.ar      1 <1>        -0.0185 
      6 C6         -3.7211    3.6994   -0.2162 C.ar      1 <1>        -0.0716 
      7 C7         -1.8656    5.5850   -0.7212 C.2       1 <1>        -0.0224 
      8 C8         -0.6594    5.7202   -0.1425 C.2       1 <1>         0.0040 
      9 N9         -0.3748    4.7926    0.7852 N.3       1 <1>        -0.2350 
     10 C10        -2.4585    6.4676   -1.7969 C.3       1 <1>         0.0784 
     11 C11        -3.7340    7.1202   -1.2971 C.2       1 <1>         0.2403 
     12 O12        -4.4304    6.5876   -0.4512 O.2       1 <1>        -0.3685 
     13 O13        -4.1193    8.3081   -1.7791 O.3       1 <1>        -0.2916 
     14 C14        -2.6657    5.6349   -3.0937 C.3       1 <1>        -0.0271 
     15 C15        -3.9971    5.6032   -8.0504 C.3       1 <1>        -0.0328 
     16 C16        -4.6027    6.4201   -9.2213 C.3       1 <1>         0.0328 
     17 N17        -4.6518    5.5879  -10.4216 N.am      1 <1>        -0.2625 
     18 C18        -5.6298    4.6703  -10.5707 C.2       1 <1>         0.3200 
     19 O19        -6.5140    4.4958   -9.7497 O.2       1 <1>        -0.3775 
     20 O20        -5.5012    3.9903  -11.7189 O.3       1 <1>        -0.2581 
     21 C21        -6.4843    2.9644  -11.9907 C.3       1 <1>         0.0905 
     22 C22        -6.4339    1.8094  -10.9486 C.3       1 <1>        -0.0320 
     23 C23        -6.0433    2.4019  -13.3719 C.3       1 <1>        -0.0320 
     24 C24        -7.9239    3.5400  -12.1313 C.3       1 <1>        -0.0320 
     25 H1         -4.8196    1.9959    0.5083 H         1 <1>         0.0524 
     26 C26        -3.2151    6.4740   -4.2800 C.3       1 <1>        -0.0495 
     27 H2         -3.0429    1.2364    2.0541 H         1 <1>         0.0543 
     28 H3         -0.8968    2.5077    2.2476 H         1 <1>         0.0548 
     29 C29        -3.3163    5.6229   -5.5760 C.3       1 <1>        -0.0527 
     30 H4         -4.5010    4.0398   -0.8875 H         1 <1>         0.0551 
     31 C31        -3.9006    6.4516   -6.7528 C.3       1 <1>        -0.0512 
     32 H5          0.0428    6.5136   -0.4022 H         1 <1>         0.0760 
     33 H6         -0.2774    5.2615    1.7553 H         1 <1>         0.1886 
     34 H7         -1.7222    7.2578   -2.0127 H         1 <1>         0.0644 
     35 H8         -3.5400    8.6992   -2.4200 H         1 <1>         0.2540 
     36 H9         -3.3639    4.8080   -2.8954 H         1 <1>         0.0308 
     37 H10        -1.6961    5.1961   -3.3831 H         1 <1>         0.0308 
     38 H11        -4.6271    4.7180   -7.8648 H         1 <1>         0.0284 
     39 H12        -2.9932    5.2545   -8.3431 H         1 <1>         0.0284 
     40 H13        -3.9822    7.3138   -9.4038 H         1 <1>         0.0519 
     41 H14        -5.6144    6.7693   -8.9545 H         1 <1>         0.0519 
     42 H15        -3.9345    5.6811  -11.1146 H         1 <1>         0.1867 
     43 H16        -7.0498    0.9626  -11.2875 H         1 <1>         0.0260 
     44 H17        -6.8095    2.1188   -9.9636 H         1 <1>         0.0260 
     45 H18        -5.3962    1.4630  -10.8284 H         1 <1>         0.0260 
     46 H19        -6.7115    1.5947  -13.7093 H         1 <1>         0.0260 
     47 H20        -5.0189    2.0031  -13.3099 H         1 <1>         0.0260 
     48 H21        -6.0541    3.2021  -14.1280 H         1 <1>         0.0260 
     49 H22        -7.9141    4.3995  -12.8184 H         1 <1>         0.0260 
     50 H23        -8.3387    3.8720  -11.1697 H         1 <1>         0.0260 
     51 H24        -8.6028    2.7743  -12.5365 H         1 <1>         0.0260 
     52 H25        -2.5504    7.3339   -4.4639 H         1 <1>         0.0268 
     53 H26        -4.2195    6.8515   -4.0291 H         1 <1>         0.0268 
     54 H27        -3.9646    4.7505   -5.3899 H         1 <1>         0.0265 
     55 H28        -2.3142    5.2552   -5.8522 H         1 <1>         0.0265 
     56 H29        -4.9064    6.8116   -6.4799 H         1 <1>         0.0266 
     57 H30        -3.2579    7.3283   -6.9368 H         1 <1>         0.0266 
@<TRIPOS>BOND
     1    1    2 ar   
     2    3    2 ar   
     3    4    3 ar   
     4    5    4 ar   
     5    5    6 ar   
     6    6    1 ar   
     7    7    5 1    
     8    7    8 2    
     9    8    9 1    
    10    9    4 1    
    11   10    7 1    
    12   10   11 1    
    13   11   12 2    
    14   11   13 1    
    15   14   10 1    
    16   31   15 1    
    17   15   16 1    
    18   16   17 1    
    19   17   18 am   
    20   18   19 2    
    21   18   20 1    
    22   20   21 1    
    23   21   22 1    
    24   21   23 1    
    25   21   24 1    
    26    1   25 1    
    27   26   14 1    
    28    2   27 1    
    29    3   28 1    
    30   29   26 1    
    31    6   30 1    
    32   29   31 1    
    33    8   32 1    
    34    9   33 1    
    35   10   34 1    
    36   13   35 1    
    37   14   36 1    
    38   14   37 1    
    39   15   38 1    
    40   15   39 1    
    41   16   40 1    
    42   16   41 1    
    43   17   42 1    
    44   22   43 1    
    45   22   44 1    
    46   22   45 1    
    47   23   46 1    
    48   23   47 1    
    49   23   48 1    
    50   24   49 1    
    51   24   50 1    
    52   24   51 1    
    53   26   52 1    
    54   26   53 1    
    55   29   54 1    
    56   29   55 1    
    57   31   56 1    
    58   31   57 1    
@<TRIPOS>SUBSTRUCTURE
     1 ****        2 TEMP              0 ****  ****    0 ROOT 
@<TRIPOS>NORMAL
@<TRIPOS>FF_PBC
FORCE_FIELD_SETUP_FEATURE Force Field Setup information
v1.0  0 0.000000 0.000000 0.000000 0.000000 0.000000 0.000000 NONE 0 0 0 0 1 0 0 0 0 0 0 0 0
