#	Name:			PISM01015.1
#	Creating user name:	malab
#	Creation time:		Mon Jul 01 22:14:48 2019

#	Modifying user name:	malab
#	Modification time:	Mon Jul 01 22:18:20 2019

@<TRIPOS>MOLECULE
PISM01015.1
   37    39     1     1     0
SMALL
GAST_HUCK


@<TRIPOS>ATOM
      1 C1          8.7768   17.7622   29.5962 C.ar      1 <1>        -0.0088 
      2 C2          8.8908   19.1384   29.3772 C.ar      1 <1>        -0.0413 
      3 C3          8.7011   19.6696   28.0974 C.ar      1 <1>         0.0283 
      4 C4          8.3914   18.8055   27.0425 C.ar      1 <1>        -0.0413 
      5 C5          8.2983   17.4276   27.2595 C.ar      1 <1>        -0.0088 
      6 C6          8.4818   16.8913   28.5400 C.ar      1 <1>         0.0796 
      7 N7          8.3763   15.5523   28.7521 N.pl3     1 <1>        -0.2836 
      8 C8          9.3039   14.8661   29.6513 C.3       1 <1>         0.0559 
      9 C9          9.4132   13.3639   29.2868 C.3       1 <1>         0.0579 
     10 N10         8.0717   12.7800   29.3687 N.am      1 <1>        -0.2383 
     11 C11         6.9103   13.5494   28.9214 C.3       1 <1>         0.0579 
     12 C12         7.3507   14.7669   28.0658 C.3       1 <1>         0.0559 
     13 C13         7.9272   11.5175   29.8670 C.2       1 <1>         0.3643 
     14 O14         8.9310   10.8656   30.1097 O.2       1 <1>        -0.3614 
     15 N15         6.7669   10.9598   30.1088 N.pl3     1 <1>        -0.0186 
     16 N16         5.5237   11.4684   29.9725 N.2       1 <1>        -0.1530 
     17 C17         4.6620   10.6096   30.3373 C.2       1 <1>         0.0399 
     18 C18         5.4198    9.4192   30.7563 C.2       1 <1>         0.0399 
     19 N19         6.6464    9.7048   30.5932 N.2       1 <1>        -0.1530 
     20 H1          8.9139   17.3804   30.6016 H         1 <1>         0.0631 
     21 H2          9.1248   19.7950   30.2096 H         1 <1>         0.0817 
     22 C22         8.8275   21.1764   27.8429 C.3       1 <1>         0.3583 
     23 H4          8.2226   19.2055   26.0471 H         1 <1>         0.0817 
     24 H5          8.0882   16.7786   26.4166 H         1 <1>         0.0631 
     25 H6          8.9271   14.9412   30.6842 H         1 <1>         0.0556 
     26 H7         10.3053   15.3264   29.5997 H         1 <1>         0.0556 
     27 H8         10.1337   12.9045   29.9849 H         1 <1>         0.0544 
     28 H9          9.8041   13.2494   28.2635 H         1 <1>         0.0544 
     29 H10         6.3504   13.9096   29.7997 H         1 <1>         0.0544 
     30 H11         6.2490   12.9441   28.2796 H         1 <1>         0.0544 
     31 H12         6.4624   15.3816   27.8402 H         1 <1>         0.0556 
     32 H13         7.7756   14.4017   27.1165 H         1 <1>         0.0556 
     33 H14         3.5800   10.7317   30.3394 H         1 <1>         0.0748 
     34 H15         5.0146    8.4807   31.1314 H         1 <1>         0.0748 
     35 F35         9.6165   21.7637   28.7830 F         1 <1>        -0.2364 
     36 F36         7.5895   21.7357   27.8884 F         1 <1>        -0.2364 
     37 F37         9.3721   21.4004   26.6165 F         1 <1>        -0.2364 
@<TRIPOS>BOND
     1    2    1 ar   
     2    2    3 ar   
     3    3    4 ar   
     4    4    5 ar   
     5    5    6 ar   
     6    1    6 ar   
     7    6    7 1    
     8    7    8 1    
     9    8    9 1    
    10    9   10 1    
    11   10   11 1    
    12   11   12 1    
    13    7   12 1    
    14   10   13 am   
    15   13   14 2    
    16   13   15 1    
    17   15   16 1    
    18   16   17 2    
    19   17   18 1    
    20   18   19 2    
    21   15   19 1    
    22    1   20 1    
    23    2   21 1    
    24    3   22 1    
    25    4   23 1    
    26    5   24 1    
    27    8   25 1    
    28    8   26 1    
    29    9   27 1    
    30    9   28 1    
    31   11   29 1    
    32   11   30 1    
    33   12   31 1    
    34   12   32 1    
    35   17   33 1    
    36   18   34 1    
    37   22   35 1    
    38   22   36 1    
    39   22   37 1    
@<TRIPOS>SUBSTRUCTURE
     1 ****        2 TEMP              0 ****  ****    0 ROOT 
@<TRIPOS>NORMAL
@<TRIPOS>FF_PBC
FORCE_FIELD_SETUP_FEATURE Force Field Setup information
v1.0  0 0.000000 0.000000 0.000000 0.000000 0.000000 0.000000 NONE 0 0 0 0 1 0 0 0 0 0 0 0 0
