#	Name:			PISM01046
#	Creating user name:	malab
#	Creation time:		Tue Jul 02 22:37:01 2019

#	Modifying user name:	malab
#	Modification time:	Tue Jul 02 22:38:32 2019

@<TRIPOS>MOLECULE
PISM01046
   58    61     1     1     0
SMALL
GAST_HUCK


@<TRIPOS>ATOM
      1 C1        -14.1652   13.4115   -6.1582 C.ar      1 <1>        -0.0685 
      2 C2        -13.3932   12.2464   -6.1243 C.ar      1 <1>        -0.0578 
      3 C3        -12.0807   12.2805   -5.6379 C.ar      1 <1>        -0.0131 
      4 C4        -11.5449   13.4962   -5.1975 C.ar      1 <1>        -0.0578 
      5 C5        -12.3155   14.6622   -5.2290 C.ar      1 <1>        -0.0685 
      6 C6        -13.6273   14.6207   -5.7092 C.ar      1 <1>        -0.0687 
      7 C7        -11.2325   11.0034   -5.5875 C.3       1 <1>         0.1028 
      8 O8        -10.3654   11.0300   -4.4405 O.3       1 <1>        -0.3099 
      9 C9         -9.5417    9.9104   -4.3306 C.ar      1 <1>         0.0868 
     10 C10        -9.8931    8.8686   -3.4694 C.ar      1 <1>        -0.0393 
     11 C11        -9.0790    7.7364   -3.3702 C.ar      1 <1>        -0.0675 
     12 C12        -7.9061    7.6423   -4.1290 C.ar      1 <1>        -0.0399 
     13 C13        -7.5561    8.6920   -4.9859 C.ar      1 <1>        -0.0675 
     14 C14        -8.3661    9.8273   -5.0806 C.ar      1 <1>        -0.0393 
     15 C15        -7.0003    6.4072   -4.0357 C.3       1 <1>         0.0251 
     16 N16        -5.5814    6.8272   -4.0416 N.3       1 <1>        -0.3026 
     17 C17        -4.5536    5.7770   -4.2327 C.3       1 <1>         0.0223 
     18 C18        -3.1999    6.4484   -4.5758 C.3       1 <1>         0.0168 
     19 N19        -2.1531    5.4194   -4.7888 N.3       1 <1>        -0.2877 
     20 C20        -1.9448    4.5609   -3.5969 C.3       1 <1>         0.0013 
     21 C21        -3.2653    3.8381   -3.2352 C.3       1 <1>        -0.0386 
     22 C22        -4.3914    4.8719   -2.9841 C.3       1 <1>        -0.0351 
     23 C23        -0.8933    5.9509   -5.3671 C.3       1 <1>         0.0482 
     24 C24        -0.0085    4.8211   -5.8953 C.ar      1 <1>         0.0421 
     25 C25        -0.5705    3.7675   -6.6228 C.ar      1 <1>        -0.0311 
     26 C26         0.2538    2.7397   -7.0878 C.ar      1 <1>        -0.0488 
     27 C27         1.6236    2.7886   -6.8165 C.ar      1 <1>        -0.0410 
     28 C28         2.1367    3.8656   -6.0881 C.ar      1 <1>         0.0028 
     29 N29         1.3186    4.8451   -5.6506 N.ar      1 <1>        -0.2968 
     30 H1        -15.1834   13.3777   -6.5339 H         1 <1>         0.0599 
     31 H2        -13.8211   11.3147   -6.4805 H         1 <1>         0.0557 
     32 H3        -10.5248   13.5401   -4.8292 H         1 <1>         0.0557 
     33 H4        -11.8948   15.6006   -4.8806 H         1 <1>         0.0599 
     34 H5        -14.2268   15.5257   -5.7336 H         1 <1>         0.0559 
     35 H6        -10.6473   10.9552   -6.5190 H         1 <1>         0.0776 
     36 H7        -11.8832   10.1164   -5.5254 H         1 <1>         0.0776 
     37 H8        -10.8011    8.9441   -2.8804 H         1 <1>         0.0525 
     38 H9         -9.3662    6.9318   -2.7009 H         1 <1>         0.0530 
     39 H10        -6.6516    8.6279   -5.5825 H         1 <1>         0.0530 
     40 H11        -8.0854   10.6460   -5.7348 H         1 <1>         0.0525 
     41 H12        -7.2182    5.7815   -4.9149 H         1 <1>         0.0566 
     42 H13        -7.2264    5.8283   -3.1266 H         1 <1>         0.0566 
     43 H14        -5.3608    7.4388   -3.1747 H         1 <1>         0.1245 
     44 H15        -4.8332    5.1491   -5.0961 H         1 <1>         0.0474 
     45 H16        -2.8988    7.1332   -3.7667 H         1 <1>         0.0444 
     46 H17        -3.3513    7.0453   -5.4899 H         1 <1>         0.0444 
     47 H18        -1.6031    5.1695   -2.7434 H         1 <1>         0.0428 
     48 H19        -1.1788    3.7930   -3.7931 H         1 <1>         0.0428 
     49 H20        -3.1212    3.2144   -2.3368 H         1 <1>         0.0278 
     50 H21        -3.5503    3.1783   -4.0716 H         1 <1>         0.0278 
     51 H22        -4.1393    5.4893   -2.1070 H         1 <1>         0.0281 
     52 H23        -5.3307    4.3371   -2.7722 H         1 <1>         0.0281 
     53 H24        -0.3359    6.5306   -4.6146 H         1 <1>         0.0619 
     54 H25        -1.0951    6.6034   -6.2301 H         1 <1>         0.0619 
     55 H26        -1.6370    3.7485   -6.8227 H         1 <1>         0.0651 
     56 H27        -0.1654    1.9130   -7.6530 H         1 <1>         0.0719 
     57 H28         2.2818    1.9999   -7.1671 H         1 <1>         0.0652 
     58 H29         3.1978    3.9221   -5.8689 H         1 <1>         0.0803 
@<TRIPOS>BOND
     1    2    1 ar   
     2    2    3 ar   
     3    3    4 ar   
     4    4    5 ar   
     5    5    6 ar   
     6    1    6 ar   
     7    3    7 1    
     8    7    8 1    
     9    8    9 1    
    10    9   10 ar   
    11   10   11 ar   
    12   11   12 ar   
    13   12   13 ar   
    14   13   14 ar   
    15    9   14 ar   
    16   12   15 1    
    17   15   16 1    
    18   16   17 1    
    19   17   18 1    
    20   18   19 1    
    21   19   20 1    
    22   20   21 1    
    23   21   22 1    
    24   17   22 1    
    25   19   23 1    
    26   23   24 1    
    27   24   25 ar   
    28   25   26 ar   
    29   26   27 ar   
    30   27   28 ar   
    31   28   29 ar   
    32   24   29 ar   
    33    1   30 1    
    34    2   31 1    
    35    4   32 1    
    36    5   33 1    
    37    6   34 1    
    38    7   35 1    
    39    7   36 1    
    40   10   37 1    
    41   11   38 1    
    42   13   39 1    
    43   14   40 1    
    44   15   41 1    
    45   15   42 1    
    46   16   43 1    
    47   17   44 1    
    48   18   45 1    
    49   18   46 1    
    50   20   47 1    
    51   20   48 1    
    52   21   49 1    
    53   21   50 1    
    54   22   51 1    
    55   22   52 1    
    56   23   53 1    
    57   23   54 1    
    58   25   55 1    
    59   26   56 1    
    60   27   57 1    
    61   28   58 1    
@<TRIPOS>SUBSTRUCTURE
     1 ****        2 TEMP              0 ****  ****    0 ROOT 
@<TRIPOS>NORMAL
@<TRIPOS>FF_PBC
FORCE_FIELD_SETUP_FEATURE Force Field Setup information
v1.0  0 0.000000 0.000000 0.000000 0.000000 0.000000 0.000000 NONE 0 0 0 0 1 0 0 0 0 0 0 0 0
