#	Name:			PISM00586
#	Creating user name:	baoopengkun
#	Creation time:		Mon Dec 10 11:54:22 2018

#	Modifying user name:	baoopengkun
#	Modification time:	Mon Dec 10 11:54:36 2018

@<TRIPOS>MOLECULE
PISM00586
   39    41     1     2     0
SMALL
GAST_HUCK


@<TRIPOS>ATOM
      1 C1         -3.6650    7.4211   -4.7531 C.ar      1 <1>        -0.0207 
      2 C2         -5.0487    7.6144   -4.7239 C.ar      1 <1>         0.0836 
      3 C3         -5.9041    6.6132   -5.1943 C.ar      1 <1>         0.0854 
      4 C4         -5.3722    5.4174   -5.6846 C.ar      1 <1>        -0.0176 
      5 C5         -3.9879    5.2269   -5.7146 C.ar      1 <1>        -0.0347 
      6 C6         -3.1288    6.2359   -5.2670 C.ar      1 <1>         0.0074 
      7 C7         -1.6080    6.0366   -5.3406 C.3       1 <1>         0.1921 
      8 C8         -1.1302    5.2912   -4.0698 C.3       1 <1>         0.1073 
      9 N9          0.2891    4.9661   -4.0161 N.pl3     1 <1>        -0.1814 
     10 N10         0.8974    4.2105   -3.0586 N.2       1 <1>        -0.1908 
     11 C11         2.1556    4.0662   -3.2511 C.2       1 <1>         0.0618 
     12 N12         2.3286    4.8170   -4.4637 N.2       1 <1>        -0.2870 
     13 C13         1.2333    5.2981   -4.8440 C.2       1 <1>         0.1270 
     14 O14        -0.9160    7.2773   -5.5291 O.3       1 <1>        -0.3815 
     15 C15        -1.1424    7.6657   -6.8876 C.3       1 <1>         0.0647 
     16 C16        -1.1665    6.2942   -7.6094 C.3       1 <1>         0.0728 
     17 O17        -1.2462    5.3383   -6.5395 O.3       1 <1>        -0.3784 
     18 Cl18       -5.7016    9.1144   -4.0965 Cl        1 <1>        -0.0620 
     19 Cl19       -7.6403    6.8481   -5.1722 Cl        1 <1>        -0.0413 
     20 C20        -2.3445    6.1500   -8.6097 C.3       1 <1>        -0.0257 
     21 C21        -2.3623    4.7380   -9.2545 C.3       1 <1>        -0.0535 
     22 C22        -3.5600    4.5788  -10.2265 C.3       1 <1>        -0.0652 
     23 H1         -3.0079    8.1971   -4.3743 H         1 <1>         0.0855 
     24 H2         -6.0362    4.6369   -6.0424 H         1 <1>         0.0703 
     25 H3         -3.5795    4.2930   -6.0887 H         1 <1>         0.0850 
     26 H4         -1.6800    4.3419   -3.9892 H         1 <1>         0.0595 
     27 H5         -1.3621    5.9110   -3.1912 H         1 <1>         0.0595 
     28 H6          2.8900    3.5233   -2.6584 H         1 <1>         0.0863 
     29 H7          1.1371    5.9002   -5.7451 H         1 <1>         0.1361 
     30 H8         -0.3494    8.3407   -7.2448 H         1 <1>         0.0575 
     31 H9         -2.1108    8.1841   -6.9637 H         1 <1>         0.0575 
     32 H10        -0.2101    6.1133   -8.1271 H         1 <1>         0.0608 
     33 H11        -2.2385    6.9142   -9.3967 H         1 <1>         0.0290 
     34 H12        -3.2998    6.3227   -8.0914 H         1 <1>         0.0290 
     35 H13        -2.4357    3.9718   -8.4652 H         1 <1>         0.0263 
     36 H14        -1.4221    4.5724   -9.8066 H         1 <1>         0.0263 
     37 H15        -3.5514    3.5737  -10.6772 H         1 <1>         0.0230 
     38 H16        -3.5012    5.3254  -11.0338 H         1 <1>         0.0230 
     39 H17        -4.5116    4.7127   -9.6886 H         1 <1>         0.0230 
@<TRIPOS>BOND
     1    2    1 ar   
     2    2    3 ar   
     3    3    4 ar   
     4    4    5 ar   
     5    5    6 ar   
     6    1    6 ar   
     7    6    7 1    
     8    7    8 1    
     9    8    9 1    
    10    9   10 1    
    11   10   11 2    
    12   11   12 1    
    13   12   13 2    
    14    9   13 1    
    15    7   14 1    
    16   14   15 1    
    17   15   16 1    
    18   16   17 1    
    19    7   17 1    
    20    2   18 1    
    21    3   19 1    
    22   16   20 1    
    23   20   21 1    
    24   21   22 1    
    25    1   23 1    
    26    4   24 1    
    27    5   25 1    
    28    8   26 1    
    29    8   27 1    
    30   11   28 1    
    31   13   29 1    
    32   15   30 1    
    33   15   31 1    
    34   16   32 1    
    35   20   33 1    
    36   20   34 1    
    37   21   35 1    
    38   21   36 1    
    39   22   37 1    
    40   22   38 1    
    41   22   39 1    
@<TRIPOS>SUBSTRUCTURE
     1 ****        2 TEMP              0 ****  ****    0 ROOT 
@<TRIPOS>NORMAL
@<TRIPOS>FF_PBC
FORCE_FIELD_SETUP_FEATURE Force Field Setup information
v1.0  0 0.000000 0.000000 0.000000 0.000000 0.000000 0.000000 NONE 0 0 0 0 1 0 0 0 0 0 0 0 0
@<TRIPOS>RENDERING_ATTRS
ANTIALIASED_LINES 
*
