#	Name:			PISM00682.1
#	Creating user name:	baoopengkun
#	Creation time:		Sat Jan 12 23:36:59 2019

#	Modifying user name:	baoopengkun
#	Modification time:	Sat Jan 12 23:39:18 2019

@<TRIPOS>MOLECULE
PISM00682.1
   55    56     1     1     0
SMALL
GAST_HUCK


@<TRIPOS>ATOM
      1 C1         -3.1601  -13.4415    3.4718 C.3       1 <1>        -0.0877 
      2 C2         -3.5266  -14.4302    2.3288 C.3       1 <1>        -0.0520 
      3 C3         -2.9775  -15.8419    2.7082 C.3       1 <1>        -0.0877 
      4 C4         -5.0783  -14.5581    2.2184 C.3       1 <1>        -0.0877 
      5 C5         -2.9196  -13.8766    1.0083 C.ar      1 <1>        -0.0568 
      6 C6         -1.7998  -14.4457    0.3852 C.ar      1 <1>        -0.0450 
      7 C7         -1.2432  -13.8948   -0.7722 C.ar      1 <1>        -0.0285 
      8 C8         -1.8463  -12.8026   -1.3968 C.ar      1 <1>        -0.0110 
      9 C9         -2.9816  -12.2402   -0.8031 C.ar      1 <1>        -0.0285 
     10 C10        -3.4900  -12.7480    0.3952 C.ar      1 <1>        -0.0450 
     11 C11        -1.2680  -12.2319   -2.7037 C.3       1 <1>        -0.0001 
     12 C12        -1.7429  -13.0030   -3.9733 C.3       1 <1>        -0.0166 
     13 C13        -3.2408  -13.4056   -3.8488 C.3       1 <1>        -0.0587 
     14 C14        -0.8766  -14.2561   -4.3118 C.3       1 <1>         0.0042 
     15 N15         0.5336  -13.9974   -4.7161 N.3       1 <1>        -0.2970 
     16 C16         0.8940  -12.7827   -5.4853 C.3       1 <1>         0.0251 
     17 C17         2.2467  -12.9462   -6.2341 C.3       1 <1>         0.0689 
     18 C18         2.7709  -11.5796   -6.7459 C.3       1 <1>        -0.0375 
     19 O19         3.2689  -13.4891   -5.3777 O.3       1 <1>        -0.3714 
     20 C20         2.8946  -14.7356   -4.7628 C.3       1 <1>         0.0689 
     21 C21         1.6406  -14.5167   -3.8794 C.3       1 <1>         0.0251 
     22 C22         2.6834  -15.8819   -5.7914 C.3       1 <1>        -0.0375 
     23 H1         -2.0653  -13.3659    3.5673 H         1 <1>         0.0126 
     24 H2         -3.5734  -13.7869    4.4320 H         1 <1>         0.0126 
     25 H3         -3.5569  -12.4351    3.2675 H         1 <1>         0.0126 
     26 H4         -3.1770  -16.5547    1.8933 H         1 <1>         0.0126 
     27 H5         -3.4642  -16.2253    3.6180 H         1 <1>         0.0126 
     28 H6         -1.8982  -15.8218    2.9199 H         1 <1>         0.0126 
     29 H7         -5.5855  -13.5845    2.2038 H         1 <1>         0.0126 
     30 H8         -5.4928  -15.1058    3.0775 H         1 <1>         0.0126 
     31 H9         -5.3417  -15.1058    1.3011 H         1 <1>         0.0126 
     32 H10        -1.3145  -15.3292    0.7770 H         1 <1>         0.0833 
     33 H11        -0.3332  -14.3186   -1.1805 H         1 <1>         0.0652 
     34 H12        -3.4757  -11.3934   -1.2729 H         1 <1>         0.0652 
     35 H13        -4.3348  -12.2405    0.8451 H         1 <1>         0.0833 
     36 H14        -0.1703  -12.2258   -2.6407 H         1 <1>         0.0502 
     37 H15        -1.5881  -11.1799   -2.7871 H         1 <1>         0.0502 
     38 H16        -1.6897  -12.3102   -4.8274 H         1 <1>         0.0341 
     39 H17        -3.3818  -14.1602   -3.0585 H         1 <1>         0.0235 
     40 H18        -3.6051  -13.8340   -4.7957 H         1 <1>         0.0235 
     41 H19        -3.8591  -12.5259   -3.6117 H         1 <1>         0.0235 
     42 H20        -1.3218  -14.7739   -5.1770 H         1 <1>         0.0431 
     43 H21        -0.9277  -14.9558   -3.4642 H         1 <1>         0.0431 
     44 H22         0.9700  -11.9339   -4.7895 H         1 <1>         0.0452 
     45 H23         0.1263  -12.5568   -6.2414 H         1 <1>         0.0452 
     46 H24         2.1070  -13.5972   -7.1136 H         1 <1>         0.0606 
     47 H25         2.9806  -10.9141   -5.8936 H         1 <1>         0.0255 
     48 H26         2.0285  -11.0993   -7.4027 H         1 <1>         0.0255 
     49 H27         3.7060  -11.7258   -7.3102 H         1 <1>         0.0255 
     50 H28         3.7507  -15.0134   -4.1238 H         1 <1>         0.0606 
     51 H29         1.8729  -13.7819   -3.0935 H         1 <1>         0.0452 
     52 H30         1.3842  -15.4736   -3.4002 H         1 <1>         0.0452 
     53 H31         2.6657  -16.8549   -5.2776 H         1 <1>         0.0255 
     54 H32         3.5088  -15.8862   -6.5199 H         1 <1>         0.0255 
     55 H33         1.7322  -15.7742   -6.3328 H         1 <1>         0.0255 
@<TRIPOS>BOND
     1    2    1 1    
     2    2    3 1    
     3    2    4 1    
     4    2    5 1    
     5    5    6 ar   
     6    6    7 ar   
     7    7    8 ar   
     8    8    9 ar   
     9    9   10 ar   
    10    5   10 ar   
    11    8   11 1    
    12   11   12 1    
    13   12   13 1    
    14   12   14 1    
    15   14   15 1    
    16   15   16 1    
    17   16   17 1    
    18   17   18 1    
    19   17   19 1    
    20   19   20 1    
    21   20   21 1    
    22   15   21 1    
    23   20   22 1    
    24    1   23 1    
    25    1   24 1    
    26    1   25 1    
    27    3   26 1    
    28    3   27 1    
    29    3   28 1    
    30    4   29 1    
    31    4   30 1    
    32    4   31 1    
    33    6   32 1    
    34    7   33 1    
    35    9   34 1    
    36   10   35 1    
    37   11   36 1    
    38   11   37 1    
    39   12   38 1    
    40   13   39 1    
    41   13   40 1    
    42   13   41 1    
    43   14   42 1    
    44   14   43 1    
    45   16   44 1    
    46   16   45 1    
    47   17   46 1    
    48   18   47 1    
    49   18   48 1    
    50   18   49 1    
    51   20   50 1    
    52   21   51 1    
    53   21   52 1    
    54   22   53 1    
    55   22   54 1    
    56   22   55 1    
@<TRIPOS>SUBSTRUCTURE
     1 ****        2 TEMP              0 ****  ****    0 ROOT 
@<TRIPOS>NORMAL
@<TRIPOS>FF_PBC
FORCE_FIELD_SETUP_FEATURE Force Field Setup information
v1.0  0 0.000000 0.000000 0.000000 0.000000 0.000000 0.000000 NONE 0 0 0 0 1 0 0 0 0 0 0 0 0
