#	Name:			PISM00777
#	Creating user name:	baoopengkun
#	Creation time:		Sat Jan 05 22:35:25 2019

#	Modifying user name:	baoopengkun
#	Modification time:	Sat Jan 05 22:37:10 2019

@<TRIPOS>MOLECULE
PISM00777
   39    41     1     1     0
SMALL
GAST_HUCK


@<TRIPOS>ATOM
      1 C1         -2.4874   15.6383   -0.6612 C.3       1 <1>        -0.1161 
      2 C2         -3.9743   15.8253   -1.0792 C.3       1 <1>        -0.0891 
      3 C3         -4.2379   17.3456   -1.3274 C.3       1 <1>        -0.0974 
      4 C4         -5.5902   17.6062   -2.0444 C.3       1 <1>        -0.0144 
      5 C5         -5.5777   16.9646   -3.4563 C.3       1 <1>         0.1350 
      6 C6         -4.9680   15.5903   -3.3871 C.2       1 <1>         0.0455 
      7 C7         -4.2697   15.0917   -2.3710 C.2       1 <1>        -0.0369 
      8 C8         -4.8996   15.2810    0.0500 C.3       1 <1>        -0.1161 
      9 C9         -5.0999   14.6519   -4.5449 C.3       1 <1>         0.0436 
     10 C10        -4.5718   13.3298   -3.9180 C.3       1 <1>         0.0513 
     11 C11        -3.7656   13.6959   -2.6247 C.3       1 <1>         0.1189 
     12 O12        -4.1242   12.7974   -1.5557 O.3       1 <1>        -0.2683 
     13 C13        -5.2584   12.2322   -1.9294 C.2       1 <1>         0.2378 
     14 C14        -5.6454   12.4747   -3.3096 C.2       1 <1>         0.0590 
     15 O15        -5.9182   11.5336   -1.1790 O.2       1 <1>        -0.3778 
     16 C16        -6.7372   12.0087   -3.9243 C.2       1 <1>         0.0720 
     17 O17        -6.9403   12.2941   -5.2190 O.3       1 <1>        -0.3226 
     18 C18        -8.1557   11.7332   -5.7532 C.3       1 <1>         0.0621 
     19 O19        -6.9094   16.8636   -3.9913 O.3       1 <1>        -0.3593 
     20 H1         -2.2675   14.5863   -0.4247 H         1 <1>         0.0034 
     21 H2         -2.2672   16.2413    0.2330 H         1 <1>         0.0034 
     22 H3         -1.8141   15.9567   -1.4720 H         1 <1>         0.0034 
     23 H4         -3.4418   17.7600   -1.9677 H         1 <1>         0.0075 
     24 H5         -4.2130   17.8952   -0.3725 H         1 <1>         0.0075 
     25 H6         -5.7654   18.6908   -2.1399 H         1 <1>         0.0329 
     26 H7         -6.4219   17.1888   -1.4586 H         1 <1>         0.0329 
     27 H8         -4.9360   17.5587   -4.1308 H         1 <1>         0.1019 
     28 H9         -4.6009   14.2691    0.3581 H         1 <1>         0.0034 
     29 H10        -5.9483   15.2285   -0.2756 H         1 <1>         0.0034 
     30 H11        -4.8408   15.9246    0.9407 H         1 <1>         0.0034 
     31 H12        -4.4461   15.0009   -5.3591 H         1 <1>         0.0702 
     32 H13        -6.1352   14.5844   -4.9093 H         1 <1>         0.0702 
     33 H14        -3.9940   12.7137   -4.6263 H         1 <1>         0.0491 
     34 H15        -2.6763   13.7230   -2.7856 H         1 <1>         0.0798 
     35 H16        -7.4224   11.3990   -3.3299 H         1 <1>         0.1066 
     36 H17        -9.0417   12.1239   -5.2274 H         1 <1>         0.0588 
     37 H18        -8.1489   10.6328   -5.6961 H         1 <1>         0.0588 
     38 H19        -8.2245   12.0247   -6.8117 H         1 <1>         0.0588 
     39 H20        -7.3435   17.7081   -4.0664 H         1 <1>         0.2174 
@<TRIPOS>BOND
     1    2    1 1    
     2    2    3 1    
     3    3    4 1    
     4    4    5 1    
     5    5    6 1    
     6    6    7 2    
     7    2    7 1    
     8    2    8 1    
     9    6    9 1    
    10    9   10 1    
    11   10   11 1    
    12    7   11 1    
    13   11   12 1    
    14   12   13 1    
    15   13   14 1    
    16   10   14 1    
    17   13   15 2    
    18   14   16 2    
    19   16   17 1    
    20   17   18 1    
    21    5   19 1    
    22    1   20 1    
    23    1   21 1    
    24    1   22 1    
    25    3   23 1    
    26    3   24 1    
    27    4   25 1    
    28    4   26 1    
    29    5   27 1    
    30    8   28 1    
    31    8   29 1    
    32    8   30 1    
    33    9   31 1    
    34    9   32 1    
    35   10   33 1    
    36   11   34 1    
    37   16   35 1    
    38   18   36 1    
    39   18   37 1    
    40   18   38 1    
    41   19   39 1    
@<TRIPOS>SUBSTRUCTURE
     1 ****        2 TEMP              0 ****  ****    0 ROOT 
@<TRIPOS>NORMAL
@<TRIPOS>FF_PBC
FORCE_FIELD_SETUP_FEATURE Force Field Setup information
v1.0  0 0.000000 0.000000 0.000000 0.000000 0.000000 0.000000 NONE 0 0 0 0 1 0 0 0 0 0 0 0 0
