#	Name:			PISM00716
#	Creating user name:	baoopengkun
#	Creation time:		Thu Jan 24 23:06:51 2019

#	Modifying user name:	baoopengkun
#	Modification time:	Thu Jan 24 23:07:25 2019

@<TRIPOS>MOLECULE
PISM00716
   83    86     1     1     0
SMALL
GAST_HUCK


@<TRIPOS>ATOM
      1 C1          0.6227    4.6748    8.7255 C.3       1 <1>        -0.0184 
      2 C2          0.0392    3.4221    9.4498 C.3       1 <1>         0.0816 
      3 C3          0.8248    2.1039    9.1593 C.3       1 <1>         0.0814 
      4 C4          2.3756    2.2702    9.2331 C.3       1 <1>        -0.0187 
      5 C5          2.8127    3.5267    8.4322 C.3       1 <1>        -0.0068 
      6 C6          2.1558    4.8469    8.9745 C.3       1 <1>        -0.0213 
      7 C7          2.7872    6.0696    8.2047 C.3       1 <1>        -0.0320 
      8 C8          3.3145    5.6869    6.7944 C.3       1 <1>        -0.0320 
      9 H1          0.0696    5.5539    9.0895 H         1 <1>         0.0296 
     10 C10         4.5311    4.7200    6.9595 C.3       1 <1>        -0.0232 
     11 C11         4.3310    3.6911    8.1263 C.3       1 <1>         0.0589 
     12 O12         5.0643    4.1260    9.2839 O.3       1 <1>        -0.3915 
     13 C13         1.9510    7.3766    8.1245 C.3       1 <1>        -0.0489 
     14 C14         2.8431    8.5927    7.6975 C.3       1 <1>        -0.0468 
     15 C15         3.9428    8.2701    6.6192 C.3       1 <1>        -0.0258 
     16 C16         3.5135    6.9574    5.9046 C.3       1 <1>        -0.0322 
     17 C17         4.4228    6.8449    4.6634 C.3       1 <1>        -0.0492 
     18 C18         4.6167    8.3330    4.2489 C.3       1 <1>        -0.0491 
     19 C19         3.9808    9.2238    5.3697 C.3       1 <1>        -0.0304 
     20 O20        -1.3545    3.2629    9.1327 O.3       1 <1>        -0.3892 
     21 O21         0.4054    1.5076    7.9146 O.3       1 <1>        -0.3892 
     22 H2          0.4248    4.5944    7.6460 H         1 <1>         0.0296 
     23 C23         2.3926    5.0973   10.5094 C.3       1 <1>        -0.0589 
     24 C24         5.3743    8.2035    7.2516 C.3       1 <1>        -0.0590 
     25 C25         4.6538   10.6389    5.4797 C.3       1 <1>        -0.0120 
     26 C26         4.5549   11.3907    4.1075 C.3       1 <1>         0.0841 
     27 C27         5.2231   12.8087    4.0973 C.3       1 <1>         0.0841 
     28 C28         5.6780   13.2852    2.6682 C.3       1 <1>        -0.0130 
     29 C29         7.1909   12.9589    2.3770 C.3       1 <1>        -0.0417 
     30 C30         7.6407   13.3888    0.9469 C.3       1 <1>        -0.0623 
     31 C31         7.5442   11.4520    2.5563 C.3       1 <1>        -0.0623 
     32 C32         4.0295   11.4965    6.6181 C.3       1 <1>        -0.0597 
     33 O33         3.1616   11.4954    3.7461 O.3       1 <1>        -0.3890 
     34 O34         4.3321   13.7426    4.7369 O.3       1 <1>        -0.3890 
     35 C35         5.3992   14.8096    2.4860 C.3       1 <1>        -0.0597 
     36 H3          0.0253    3.5977   10.5358 H         1 <1>         0.0619 
     37 H4          0.5215    1.3526    9.9085 H         1 <1>         0.0619 
     38 H5          2.8326    1.3654    8.7988 H         1 <1>         0.0295 
     39 H6          2.7240    2.3254   10.2733 H         1 <1>         0.0295 
     40 H7          2.4205    3.2809    7.4368 H         1 <1>         0.0332 
     41 H8          3.6756    6.3600    8.7763 H         1 <1>         0.0309 
     42 H9          2.5202    5.1323    6.2660 H         1 <1>         0.0307 
     43 H10         4.6609    4.1844    6.0031 H         1 <1>         0.0293 
     44 H11         5.4616    5.2726    7.1488 H         1 <1>         0.0293 
     45 H12         4.7608    2.7232    7.8060 H         1 <1>         0.0596 
     46 H13         5.0325    3.5027   10.0029 H         1 <1>         0.2098 
     47 H14         1.4862    7.6136    9.0946 H         1 <1>         0.0268 
     48 H15         1.1295    7.2224    7.4063 H         1 <1>         0.0268 
     49 H16         3.3334    8.9703    8.6093 H         1 <1>         0.0271 
     50 H17         2.1616    9.3828    7.3458 H         1 <1>         0.0271 
     51 H18         2.5141    7.1784    5.4784 H         1 <1>         0.0309 
     52 H19         3.9623    6.2315    3.8703 H         1 <1>         0.0268 
     53 H20         5.3882    6.3851    4.9243 H         1 <1>         0.0268 
     54 H21         4.1287    8.5220    3.2776 H         1 <1>         0.0268 
     55 H22         5.6940    8.5375    4.1330 H         1 <1>         0.0268 
     56 H23         2.9331    9.4206    5.0826 H         1 <1>         0.0310 
     57 H24        -1.4966    3.0355    8.2199 H         1 <1>         0.2099 
     58 H25         0.5419    2.0424    7.1418 H         1 <1>         0.2099 
     59 H26         2.0534    4.2932   11.1700 H         1 <1>         0.0235 
     60 H27         1.8550    6.0034   10.8233 H         1 <1>         0.0235 
     61 H28         3.4511    5.2535   10.7569 H         1 <1>         0.0235 
     62 H29         5.4664    7.4566    8.0449 H         1 <1>         0.0235 
     63 H30         5.6316    9.1655    7.7143 H         1 <1>         0.0235 
     64 H31         6.1538    7.9863    6.5098 H         1 <1>         0.0235 
     65 H32         5.7243   10.5050    5.7056 H         1 <1>         0.0327 
     66 H33         5.0458   10.7655    3.3502 H         1 <1>         0.0622 
     67 H34         6.1120   12.8159    4.7470 H         1 <1>         0.0622 
     68 H35         5.0659   12.7744    1.9080 H         1 <1>         0.0326 
     69 H36         7.8117   13.5232    3.0952 H         1 <1>         0.0299 
     70 H37         6.9550   12.9745    0.1920 H         1 <1>         0.0232 
     71 H38         8.6553   13.0233    0.7247 H         1 <1>         0.0232 
     72 H39         7.6798   14.4816    0.8344 H         1 <1>         0.0232 
     73 H40         7.3758   11.1059    3.5860 H         1 <1>         0.0232 
     74 H41         8.6095   11.2740    2.3407 H         1 <1>         0.0232 
     75 H42         6.9515   10.8378    1.8614 H         1 <1>         0.0232 
     76 H43         2.9750   11.7196    6.3952 H         1 <1>         0.0233 
     77 H44         4.5716   12.4433    6.7500 H         1 <1>         0.0233 
     78 H45         4.0821   10.9890    7.5872 H         1 <1>         0.0233 
     79 H46         3.0097   11.8280    2.8670 H         1 <1>         0.2099 
     80 H47         3.4509   13.7123    4.3781 H         1 <1>         0.2099 
     81 H48         5.6092   15.1521    1.4640 H         1 <1>         0.0233 
     82 H49         6.0131   15.3920    3.1901 H         1 <1>         0.0233 
     83 H50         4.3416   15.0549    2.6596 H         1 <1>         0.0233 
@<TRIPOS>BOND
     1    2    1 1    
     2    2    3 1    
     3    3    4 1    
     4    4    5 1    
     5    6    5 1    
     6    1    6 1    
     7    6    7 1    
     8    7    8 1    
     9   10    8 1    
    10    1    9 1    
    11   11   10 1    
    12   11   12 1    
    13    5   11 1    
    14    7   13 1    
    15   13   14 1    
    16   14   15 1    
    17   16   15 1    
    18    8   16 1    
    19   16   17 1    
    20   17   18 1    
    21   19   18 1    
    22   15   19 1    
    23    2   20 1    
    24    3   21 1    
    25    1   22 1    
    26    6   23 1    
    27   15   24 1    
    28   19   25 1    
    29   25   26 1    
    30   26   27 1    
    31   27   28 1    
    32   28   29 1    
    33   29   30 1    
    34   29   31 1    
    35   25   32 1    
    36   26   33 1    
    37   27   34 1    
    38   28   35 1    
    39    2   36 1    
    40    3   37 1    
    41    4   38 1    
    42    4   39 1    
    43    5   40 1    
    44    7   41 1    
    45    8   42 1    
    46   10   43 1    
    47   10   44 1    
    48   11   45 1    
    49   12   46 1    
    50   13   47 1    
    51   13   48 1    
    52   14   49 1    
    53   14   50 1    
    54   16   51 1    
    55   17   52 1    
    56   17   53 1    
    57   18   54 1    
    58   18   55 1    
    59   19   56 1    
    60   20   57 1    
    61   21   58 1    
    62   23   59 1    
    63   23   60 1    
    64   23   61 1    
    65   24   62 1    
    66   24   63 1    
    67   24   64 1    
    68   25   65 1    
    69   26   66 1    
    70   27   67 1    
    71   28   68 1    
    72   29   69 1    
    73   30   70 1    
    74   30   71 1    
    75   30   72 1    
    76   31   73 1    
    77   31   74 1    
    78   31   75 1    
    79   32   76 1    
    80   32   77 1    
    81   32   78 1    
    82   33   79 1    
    83   34   80 1    
    84   35   81 1    
    85   35   82 1    
    86   35   83 1    
@<TRIPOS>SUBSTRUCTURE
     1 ****        2 TEMP              0 ****  ****    0 ROOT 
@<TRIPOS>NORMAL
@<TRIPOS>FF_PBC
FORCE_FIELD_SETUP_FEATURE Force Field Setup information
v1.0  0 0.000000 0.000000 0.000000 0.000000 0.000000 0.000000 NONE 0 0 0 0 1 0 0 0 0 0 0 0 0
