#	Name:			PISM00813.1
#	Creating user name:	baoopengkun
#	Creation time:		Fri Nov 30 17:12:51 2018

#	Modifying user name:	baoopengkun
#	Modification time:	Fri Nov 30 17:15:58 2018

@<TRIPOS>MOLECULE
PISM00813.1
   32    34     1     2     0
SMALL
GAST_HUCK


@<TRIPOS>ATOM
      1 C1          0.7088   -4.0412    5.2619 C.ar      1 <1>        -0.0136 
      2 C2          0.7659   -3.4521    6.5294 C.ar      1 <1>        -0.0643 
      3 C3          1.3781   -2.2060    6.6883 C.ar      1 <1>        -0.0753 
      4 C4          1.9501   -1.5650    5.5859 C.ar      1 <1>        -0.0758 
      5 C5          1.9233   -2.1725    4.3269 C.ar      1 <1>        -0.0703 
      6 C6          1.2786   -3.4040    4.1581 C.ar      1 <1>        -0.0227 
      7 C7          0.0191   -5.3855    5.0197 C.3       1 <1>         0.1069 
      8 O8          0.7062   -6.2289    4.0741 O.3       1 <1>        -0.2706 
      9 C9          1.0709   -5.6161    2.9381 C.2       1 <1>         0.2412 
     10 C10         1.1567   -4.1435    2.8428 C.2       1 <1>         0.0799 
     11 O11         1.3556   -6.2997    1.9690 O.2       1 <1>        -0.3766 
     12 C12         1.1298   -3.5399    1.6460 C.2       1 <1>         0.1027 
     13 O13         1.1688   -2.2026    1.5608 O.3       1 <1>        -0.2519 
     14 C14         1.2013   -1.6851    0.2181 C.3       1 <1>         0.2450 
     15 C15         2.5136   -2.0237   -0.4540 C.2       1 <1>         0.0003 
     16 C16         3.2234   -0.9196   -0.6782 C.2       1 <1>         0.0294 
     17 C17         2.3690    0.1444   -0.1665 C.2       1 <1>         0.2496 
     18 O18         1.2014   -0.2480    0.3264 O.3       1 <1>        -0.2294 
     19 C19         4.5865   -0.7861   -1.3005 C.3       1 <1>        -0.0323 
     20 O20         2.6972    1.3178   -0.1953 O.2       1 <1>        -0.3691 
     21 H1          0.3345   -3.9535    7.3897 H         1 <1>         0.0537 
     22 H2          1.4102   -1.7364    7.6668 H         1 <1>         0.0542 
     23 H3          2.4202   -0.5939    5.7092 H         1 <1>         0.0543 
     24 H4          2.4202   -1.6792    3.4999 H         1 <1>         0.0535 
     25 H5         -0.9952   -5.1746    4.6454 H         1 <1>         0.0768 
     26 H6         -0.0717   -5.9551    5.9568 H         1 <1>         0.0768 
     27 H7          1.0614   -4.1768    0.7603 H         1 <1>         0.1302 
     28 H8          0.3279   -1.9952   -0.3805 H         1 <1>         0.1225 
     29 H9          2.8430   -3.0285   -0.7158 H         1 <1>         0.0707 
     30 H10         5.1336   -1.7397   -1.2532 H         1 <1>         0.0347 
     31 H11         5.1637   -0.0176   -0.7647 H         1 <1>         0.0347 
     32 H12         4.4784   -0.4841   -2.3527 H         1 <1>         0.0347 
@<TRIPOS>BOND
     1    2    1 ar   
     2    2    3 ar   
     3    3    4 ar   
     4    4    5 ar   
     5    5    6 ar   
     6    1    6 ar   
     7    1    7 1    
     8    7    8 1    
     9    8    9 1    
    10    9   10 1    
    11    6   10 1    
    12    9   11 2    
    13   10   12 2    
    14   12   13 1    
    15   13   14 1    
    16   14   15 1    
    17   15   16 2    
    18   16   17 1    
    19   17   18 1    
    20   14   18 1    
    21   16   19 1    
    22   17   20 2    
    23    2   21 1    
    24    3   22 1    
    25    4   23 1    
    26    5   24 1    
    27    7   25 1    
    28    7   26 1    
    29   12   27 1    
    30   14   28 1    
    31   15   29 1    
    32   19   30 1    
    33   19   31 1    
    34   19   32 1    
@<TRIPOS>SUBSTRUCTURE
     1 ****        2 TEMP              0 ****  ****    0 ROOT 
@<TRIPOS>NORMAL
@<TRIPOS>FF_PBC
FORCE_FIELD_SETUP_FEATURE Force Field Setup information
v1.0  0 0.000000 0.000000 0.000000 0.000000 0.000000 0.000000 NONE 0 0 0 0 1 0 0 0 0 0 0 0 0
@<TRIPOS>RENDERING_ATTRS
ANTIALIASED_LINES 
*
