#	Name:			PISM00077
#	Creating user name:	baoopengkun
#	Creation time:		Thu Dec 27 12:16:18 2018

#	Modifying user name:	baoopengkun
#	Modification time:	Thu Dec 27 12:17:50 2018

@<TRIPOS>MOLECULE
PISM00077
   53    54     1     1     0
SMALL
GAST_HUCK


@<TRIPOS>ATOM
      1 C1          4.9120    9.5417  -23.3384 C.3       1 <1>        -0.0651 
      2 C2          4.3098    8.2084  -22.8231 C.3       1 <1>        -0.0538 
      3 C3          3.6637    8.3841  -21.4216 C.3       1 <1>        -0.0357 
      4 C4          3.0609    7.0494  -20.9031 C.3       1 <1>         0.0422 
      5 C5          2.4328    7.1767  -19.5336 C.2       1 <1>         0.1979 
      6 O6          2.4226    8.2722  -18.9972 O.2       1 <1>        -0.3806 
      7 N7          1.9160    6.1090  -18.9828 N.pl3     1 <1>        -0.2468 
      8 C8          1.3399    6.1370  -17.7552 C.ar      1 <1>         0.0493 
      9 C9          1.9434    6.8017  -16.6804 C.ar      1 <1>        -0.0370 
     10 C10         1.3142    6.8492  -15.4333 C.ar      1 <1>         0.0473 
     11 C11         0.0995    6.1860  -15.2376 C.ar      1 <1>         0.0430 
     12 C12        -0.4950    5.4980  -16.2978 C.ar      1 <1>        -0.0530 
     13 C13         0.1225    5.4775  -17.5517 C.ar      1 <1>        -0.0506 
     14 Cl14        2.0502    7.7440  -14.1180 Cl        1 <1>        -0.0844 
     15 N15        -0.5037    6.2077  -14.0264 N.pl3     1 <1>        -0.3105 
     16 C16         0.0041    5.3761  -12.9407 C.3       1 <1>         0.0452 
     17 C17        -0.2903    6.0469  -11.5761 C.3       1 <1>         0.0532 
     18 N18        -1.7289    6.2939  -11.4579 N.am      1 <1>        -0.2695 
     19 C19        -2.5374    6.5492  -12.6530 C.3       1 <1>         0.0532 
     20 C20        -1.6420    7.0899  -13.7975 C.3       1 <1>         0.0452 
     21 C21        -2.2936    6.2612  -10.2193 C.2       1 <1>         0.1785 
     22 O22        -1.6100    6.0822   -9.2246 O.2       1 <1>        -0.3969 
     23 C23        -3.7811    6.4418  -10.0108 C.3       1 <1>         0.0372 
     24 C24        -4.2342    6.0967   -8.5649 C.3       1 <1>        -0.0389 
     25 C25        -5.7667    6.2650   -8.3934 C.3       1 <1>        -0.0632 
     26 H1          5.6912    9.9034  -22.6494 H         1 <1>         0.0230 
     27 H2          4.1287   10.3113  -23.4216 H         1 <1>         0.0230 
     28 H3          5.3646    9.3943  -24.3319 H         1 <1>         0.0230 
     29 H4          5.1095    7.4508  -22.7693 H         1 <1>         0.0264 
     30 H5          3.5488    7.8568  -23.5397 H         1 <1>         0.0264 
     31 H6          2.8663    9.1438  -21.4785 H         1 <1>         0.0290 
     32 H7          4.4273    8.7368  -20.7084 H         1 <1>         0.0290 
     33 H8          3.8558    6.2892  -20.8487 H         1 <1>         0.0510 
     34 H9          2.2879    6.7023  -21.6064 H         1 <1>         0.0510 
     35 H10         1.9227    5.2180  -19.5009 H         1 <1>         0.2072 
     36 H11         2.9089    7.2803  -16.8006 H         1 <1>         0.0503 
     37 H12        -1.4358    4.9798  -16.1435 H         1 <1>         0.0488 
     38 H13        -0.3505    4.9479  -18.3724 H         1 <1>         0.0501 
     39 H14         1.0879    5.1999  -13.0431 H         1 <1>         0.0530 
     40 H15        -0.5101    4.4031  -12.9876 H         1 <1>         0.0530 
     41 H16         0.2473    7.0062  -11.5121 H         1 <1>         0.0541 
     42 H17         0.0902    5.3799  -10.7843 H         1 <1>         0.0541 
     43 H18        -3.3276    7.2973  -12.4846 H         1 <1>         0.0541 
     44 H19        -3.0017    5.6049  -12.9791 H         1 <1>         0.0541 
     45 H20        -1.2440    8.0780  -13.5154 H         1 <1>         0.0530 
     46 H21        -2.2410    7.2067  -14.7163 H         1 <1>         0.0530 
     47 H22        -4.3257    5.7909  -10.7118 H         1 <1>         0.0502 
     48 H23        -4.0398    7.4925  -10.2121 H         1 <1>         0.0502 
     49 H24        -3.7175    6.7568   -7.8477 H         1 <1>         0.0287 
     50 H25        -3.9564    5.0540   -8.3358 H         1 <1>         0.0287 
     51 H26        -6.0650    7.3047   -8.5998 H         1 <1>         0.0231 
     52 H27        -6.0614    6.0146   -7.3619 H         1 <1>         0.0231 
     53 H28        -6.3075    5.5980   -9.0828 H         1 <1>         0.0231 
@<TRIPOS>BOND
     1    2    1 1    
     2    2    3 1    
     3    3    4 1    
     4    4    5 1    
     5    5    6 2    
     6    5    7 1    
     7    7    8 1    
     8    8    9 ar   
     9    9   10 ar   
    10   10   11 ar   
    11   11   12 ar   
    12   12   13 ar   
    13    8   13 ar   
    14   10   14 1    
    15   11   15 1    
    16   15   16 1    
    17   16   17 1    
    18   17   18 1    
    19   18   19 1    
    20   19   20 1    
    21   15   20 1    
    22   18   21 am   
    23   21   22 2    
    24   21   23 1    
    25   23   24 1    
    26   24   25 1    
    27    1   26 1    
    28    1   27 1    
    29    1   28 1    
    30    2   29 1    
    31    2   30 1    
    32    3   31 1    
    33    3   32 1    
    34    4   33 1    
    35    4   34 1    
    36    7   35 1    
    37    9   36 1    
    38   12   37 1    
    39   13   38 1    
    40   16   39 1    
    41   16   40 1    
    42   17   41 1    
    43   17   42 1    
    44   19   43 1    
    45   19   44 1    
    46   20   45 1    
    47   20   46 1    
    48   23   47 1    
    49   23   48 1    
    50   24   49 1    
    51   24   50 1    
    52   25   51 1    
    53   25   52 1    
    54   25   53 1    
@<TRIPOS>SUBSTRUCTURE
     1 ****        2 TEMP              0 ****  ****    0 ROOT 
@<TRIPOS>NORMAL
@<TRIPOS>FF_PBC
FORCE_FIELD_SETUP_FEATURE Force Field Setup information
v1.0  0 0.000000 0.000000 0.000000 0.000000 0.000000 0.000000 NONE 0 0 0 0 1 0 0 0 0 0 0 0 0
