#	Name:			PISM00248.1
#	Creating user name:	14062
#	Creation time:		Fri Jul 12 13:58:26 2019

#	Modifying user name:	14062
#	Modification time:	Fri Jul 12 13:58:49 2019

@<TRIPOS>MOLECULE
PISM00248.1
   30    31     1     2     0
SMALL
GAST_HUCK


@<TRIPOS>ATOM
      1 C1         -7.4855   -0.0561   -3.1369 C.3       1 BENZYL      0.1884 
      2 C1         -7.3116   -0.2403   -4.6646 C.3       1 BENZYL      0.0282 
      3 C2         -8.6787   -0.1304   -5.3551 C.ar      1 BENZYL     -0.0373 
      4 C3         -9.4375   -1.2768   -5.6116 C.ar      1 BENZYL     -0.0564 
      5 C4        -10.6761   -1.1734   -6.2503 C.ar      1 BENZYL     -0.0567 
      6 C5        -11.1719    0.0777   -6.6351 C.ar      1 BENZYL     -0.0222 
      7 C6        -10.4195    1.2302   -6.3738 C.ar      1 BENZYL     -0.0259 
      8 C7         -9.1797    1.1201   -5.7325 C.ar      1 BENZYL     -0.0547 
      9 C9         -6.1678   -0.2252   -2.4150 C.2       1 BENZYL      0.2647 
     10 O10        -5.1397   -0.5306   -2.9995 O.2       1 BENZYL     -0.3674 
     11 O11        -6.1881   -0.0283   -1.0947 O.3       1 BENZYL     -0.2906 
     12 C12       -10.9143    2.4832   -6.7561 C.ar      1 BENZYL     -0.0578 
     13 O13        -8.0506    1.2480   -2.9014 O.3       1 BENZYL     -0.2747 
     14 C14       -12.1521    2.5884   -7.3965 C.ar      1 BENZYL     -0.0637 
     15 C15       -12.9015    1.4387   -7.6575 C.ar      1 BENZYL     -0.0634 
     16 C16       -12.4114    0.1864   -7.2774 C.ar      1 BENZYL     -0.0568 
     17 H1         -8.1831   -0.8208   -2.7608 H         1 BENZYL      0.0901 
     18 H2         -6.6329    0.5368   -5.0500 H         1 BENZYL      0.0480 
     19 H3         -6.8583   -1.2207   -4.8821 H         1 BENZYL      0.0480 
     20 H4         -9.0697   -2.2541   -5.3152 H         1 BENZYL      0.0586 
     21 H5        -11.2490   -2.0752   -6.4440 H         1 BENZYL      0.0620 
     22 N22        -8.3975    1.4667   -1.5852 N.3       1 BENZYL     -0.2115 
     23 H6         -8.5976    2.0115   -5.5215 H         1 BENZYL      0.0531 
     24 H7         -5.3247   -0.1574   -0.7168 H         1 BENZYL      0.2540 
     25 H8        -10.3423    3.3848   -6.5594 H         1 BENZYL      0.0603 
     26 H9        -12.5313    3.5623   -7.6910 H         1 BENZYL      0.0611 
     27 H10       -13.8634    1.5187   -8.1550 H         1 BENZYL      0.0598 
     28 H11       -13.0033   -0.6995   -7.4863 H         1 BENZYL      0.0619 
     29 H12        -9.1104    2.2769   -1.5299 H         1 BENZYL      0.1502 
     30 H13        -7.5207    1.7215   -1.0045 H         1 BENZYL      0.1502 
@<TRIPOS>BOND
     1    2    3 1    
     2    3    4 ar   
     3    3    8 ar   
     4    8    7 ar   
     5    7    6 ar   
     6    6    5 ar   
     7    5    4 ar   
     8    2    1 1    
     9    1    9 1    
    10    9   10 2    
    11    9   11 1    
    12    7   12 ar   
    13    1   13 1    
    14   12   14 ar   
    15   14   15 ar   
    16   15   16 ar   
    17    6   16 ar   
    18    1   17 1    
    19    2   18 1    
    20    2   19 1    
    21    4   20 1    
    22   13   22 1    
    23    5   21 1    
    24    8   23 1    
    25   11   24 1    
    26   12   25 1    
    27   14   26 1    
    28   15   27 1    
    29   16   28 1    
    30   22   29 1    
    31   22   30 1    
@<TRIPOS>SUBSTRUCTURE
     1 BENZYL      2 PERM              0 ****  ****    0 ROOT 
@<TRIPOS>NORMAL
@<TRIPOS>FF_PBC
FORCE_FIELD_SETUP_FEATURE Force Field Setup information
v1.0  0 0.000000 0.000000 0.000000 0.000000 0.000000 0.000000 NONE 0 0 0 0 1 0 0 0 0 0 0 0 0
@<TRIPOS>RENDERING_ATTRS
ANTIALIASED_LINES 
*
