#	Name:			PISM00457
#	Creating user name:	baoopengkun
#	Creation time:		Wed Feb 27 21:52:36 2019

#	Modifying user name:	baoopengkun
#	Modification time:	Wed Feb 27 21:53:06 2019

@<TRIPOS>MOLECULE
PISM00457
   33    34     1     1     0
SMALL
GAST_HUCK


@<TRIPOS>ATOM
      1 Cl1        13.9088    6.3161  -15.5119 Cl        1 <1>        -0.0707 
      2 C2         15.2753    5.6491  -14.6419 C.ar      1 <1>         0.0405 
      3 C3         16.4744    6.3637  -14.5692 C.ar      1 <1>        -0.0459 
      4 C4         17.5636    5.8315  -13.8735 C.ar      1 <1>        -0.0341 
      5 C5         17.4561    4.5876  -13.2445 C.ar      1 <1>         0.1141 
      6 C6         16.2576    3.8723  -13.3228 C.ar      1 <1>        -0.0341 
      7 C7         15.1678    4.4024  -14.0193 C.ar      1 <1>        -0.0459 
      8 S8         18.8570    3.8896  -12.4064 S.o2      1 <1>         0.0903 
      9 O9         19.7470    4.9574  -11.9966 O.2       1 <1>        -0.1447 
     10 O10        18.3942    2.9214  -11.4310 O.2       1 <1>        -0.1447 
     11 N11        19.5098    3.1056  -13.6811 N.am      1 <1>        -0.1797 
     12 C12        20.1240    3.8573  -14.7144 C.ar      1 <1>         0.0674 
     13 C13        19.3932    4.1628  -15.8658 C.ar      1 <1>        -0.0516 
     14 C14        19.9632    4.9427  -16.8753 C.ar      1 <1>        -0.0849 
     15 C15        21.2742    5.4039  -16.7360 C.ar      1 <1>        -0.0860 
     16 C16        22.0134    5.0769  -15.5957 C.ar      1 <1>        -0.0761 
     17 C17        21.4481    4.2934  -14.5831 C.ar      1 <1>        -0.0281 
     18 C18        22.2964    3.9288  -13.3583 C.3       1 <1>        -0.0363 
     19 H1         16.5591    7.3313  -15.0537 H         1 <1>         0.0624 
     20 C20        19.3395    1.6703  -13.8587 C.3       1 <1>         0.0433 
     21 H2         18.4969    6.3822  -13.8252 H         1 <1>         0.0637 
     22 H3         16.1735    2.9031  -12.8434 H         1 <1>         0.0637 
     23 H4         14.2371    3.8472  -14.0783 H         1 <1>         0.0624 
     24 H5         18.3785    3.7949  -15.9719 H         1 <1>         0.0458 
     25 H6         19.3898    5.1890  -17.7638 H         1 <1>         0.0515 
     26 H7         21.7197    6.0149  -17.5147 H         1 <1>         0.0453 
     27 H8         23.0336    5.4350  -15.4980 H         1 <1>         0.0507 
     28 H9         21.8518    3.1073  -12.7782 H         1 <1>         0.0358 
     29 H10        22.3895    4.8145  -12.7127 H         1 <1>         0.0358 
     30 H11        23.3005    3.6162  -13.6831 H         1 <1>         0.0358 
     31 H12        19.9600    1.2932  -14.6857 H         1 <1>         0.0515 
     32 H13        18.2840    1.4499  -14.0785 H         1 <1>         0.0515 
     33 H14        19.6323    1.1431  -12.9381 H         1 <1>         0.0515 
@<TRIPOS>BOND
     1    2    1 1    
     2    2    3 ar   
     3    3    4 ar   
     4    4    5 ar   
     5    5    6 ar   
     6    6    7 ar   
     7    2    7 ar   
     8    5    8 1    
     9    8    9 2    
    10    8   10 2    
    11    8   11 1    
    12   11   12 1    
    13   12   13 ar   
    14   13   14 ar   
    15   14   15 ar   
    16   15   16 ar   
    17   16   17 ar   
    18   12   17 ar   
    19   17   18 1    
    20    3   19 1    
    21   11   20 1    
    22    4   21 1    
    23    6   22 1    
    24    7   23 1    
    25   13   24 1    
    26   14   25 1    
    27   15   26 1    
    28   16   27 1    
    29   18   28 1    
    30   18   29 1    
    31   18   30 1    
    32   20   31 1    
    33   20   32 1    
    34   20   33 1    
@<TRIPOS>SUBSTRUCTURE
     1 ****        2 TEMP              0 ****  ****    0 ROOT 
@<TRIPOS>NORMAL
@<TRIPOS>FF_PBC
FORCE_FIELD_SETUP_FEATURE Force Field Setup information
v1.0  0 0.000000 0.000000 0.000000 0.000000 0.000000 0.000000 NONE 0 0 0 0 1 0 0 0 0 0 0 0 0
