#	Name:			PISM00486
#	Creating user name:	baoopengkun
#	Creation time:		Wed Feb 27 21:53:21 2019

#	Modifying user name:	baoopengkun
#	Modification time:	Wed Feb 27 21:53:59 2019

@<TRIPOS>MOLECULE
PISM00486
   10    10     1     1     0
SMALL
GAST_HUCK


@<TRIPOS>ATOM
      1 C1         16.6250    2.4064  -15.3763 C.2       1 <1>        -0.0688 
      2 C2         15.5233    2.7282  -14.5249 C.3       1 <1>        -0.0061 
      3 C3         17.0248    2.1995  -14.0244 C.3       1 <1>        -0.0061 
      4 C4         17.0289    2.3405  -16.6469 C.2       1 <1>        -0.1286 
      5 H1         14.7079    2.0240  -14.7483 H         1 <1>         0.0486 
      6 H2         15.3003    3.7981  -14.6520 H         1 <1>         0.0486 
      7 H3         16.9740    1.1988  -13.5703 H         1 <1>         0.0486 
      8 H4         17.5691    2.9810  -13.4737 H         1 <1>         0.0486 
      9 H5         16.3454    2.6125  -17.4498 H         1 <1>         0.0075 
     10 H6         18.0412    2.0148  -16.8815 H         1 <1>         0.0075 
@<TRIPOS>BOND
     1    2    1 1    
     2    2    3 1    
     3    1    3 1    
     4    1    4 2    
     5    2    5 1    
     6    2    6 1    
     7    3    7 1    
     8    3    8 1    
     9    4    9 1    
    10    4   10 1    
@<TRIPOS>SUBSTRUCTURE
     1 ****        2 TEMP              0 ****  ****    0 ROOT 
@<TRIPOS>NORMAL
@<TRIPOS>FF_PBC
FORCE_FIELD_SETUP_FEATURE Force Field Setup information
v1.0  0 0.000000 0.000000 0.000000 0.000000 0.000000 0.000000 NONE 0 0 0 0 1 0 0 0 0 0 0 0 0
