#	Name:			PISM00551
#	Creating user name:	baoopengkun
#	Creation time:		Sat Dec 15 14:51:35 2018

#	Modifying user name:	baoopengkun
#	Modification time:	Sat Dec 15 14:58:14 2018

@<TRIPOS>MOLECULE
PISM00551
   35    36     1     1     0
SMALL
GAST_HUCK


@<TRIPOS>ATOM
      1 C1          7.1972    8.7430   17.2732 C.3       1 <1>        -0.0559 
      2 C2          8.1513    9.4459   15.0324 C.3       1 <1>        -0.0559 
      3 H1          7.5543    9.6784   17.7306 H         1 <1>         0.0238 
      4 H2          7.9873    7.9847   17.3853 H         1 <1>         0.0238 
      5 H3          6.3180    8.4028   17.8396 H         1 <1>         0.0238 
      6 H4          8.9510    8.6944   15.1203 H         1 <1>         0.0238 
      7 C7          5.7503   10.0410   15.6163 C.3       1 <1>         0.0217 
      8 C8          6.8649    8.9653   15.7666 C.3       1 <1>        -0.0064 
      9 C9          6.3701    7.6370   15.1248 C.3       1 <1>         0.0217 
     10 C10         5.0633    7.1880   15.7197 C.2       1 <1>         0.1096 
     11 C11         4.0930    8.1506   16.2759 C.2       1 <1>         0.0866 
     12 C12         4.4434    9.5830   16.2066 C.2       1 <1>         0.1096 
     13 O13         3.6653   10.4199   16.6349 O.2       1 <1>        -0.4045 
     14 O14         4.7929    5.9967   15.7480 O.2       1 <1>        -0.4045 
     15 C15         2.9367    7.7408   16.8233 C.2       1 <1>         0.0699 
     16 N16         2.5941    6.4773   16.8982 N.pl3     1 <1>        -0.2528 
     17 C17         1.4238    6.0822   17.4591 C.ar      1 <1>         0.0864 
     18 C18         1.0090    6.6022   18.6917 C.ar      1 <1>        -0.0345 
     19 C19        -0.2131    6.2146   19.2490 C.ar      1 <1>        -0.0561 
     20 C20        -1.0147    5.2772   18.5933 C.ar      1 <1>         0.0296 
     21 C21        -0.5925    4.7325   17.3784 C.ar      1 <1>        -0.0423 
     22 C22         0.6185    5.1375   16.8101 C.ar      1 <1>         0.0659 
     23 H5          8.5151   10.3900   15.4664 H         1 <1>         0.0238 
     24 H6          7.9528    9.6133   13.9626 H         1 <1>         0.0238 
     25 H7          6.0666   10.9668   16.1225 H         1 <1>         0.0481 
     26 H8          5.5683   10.2771   14.5568 H         1 <1>         0.0481 
     27 H9          7.1243    6.8500   15.2822 H         1 <1>         0.0481 
     28 H10         6.2172    7.7523   14.0409 H         1 <1>         0.0481 
     29 H11         2.2692    8.5147   17.2090 H         1 <1>         0.1321 
     30 H12         3.2263    5.7524   16.5034 H         1 <1>         0.2286 
     31 H13         1.6370    7.3043   19.2305 H         1 <1>         0.0547 
     32 H14        -0.5409    6.6385   20.1929 H         1 <1>         0.0598 
     33 Cl33       -2.5435    4.7857   19.2926 Cl        1 <1>        -0.0804 
     34 H16        -1.2076    3.9949   16.8743 H         1 <1>         0.0602 
     35 Cl35        1.1119    4.4549   15.2725 Cl        1 <1>        -0.0781 
@<TRIPOS>BOND
     1    8    1 1    
     2    8    2 1    
     3    1    3 1    
     4    1    4 1    
     5    1    5 1    
     6    2    6 1    
     7    2   23 1    
     8    7    8 1    
     9    8    9 1    
    10    9   10 1    
    11   11   10 1    
    12   12   11 1    
    13    7   12 1    
    14   12   13 2    
    15   10   14 2    
    16   11   15 2    
    17   15   16 1    
    18   16   17 1    
    19   17   18 ar   
    20   18   19 ar   
    21   19   20 ar   
    22   21   20 ar   
    23   22   21 ar   
    24   17   22 ar   
    25    2   24 1    
    26    7   25 1    
    27    7   26 1    
    28    9   27 1    
    29    9   28 1    
    30   15   29 1    
    31   16   30 1    
    32   18   31 1    
    33   19   32 1    
    34   20   33 1    
    35   21   34 1    
    36   22   35 1    
@<TRIPOS>SUBSTRUCTURE
     1 ****        7 TEMP              0 ****  ****    0 ROOT 
@<TRIPOS>NORMAL
@<TRIPOS>FF_PBC
FORCE_FIELD_SETUP_FEATURE Force Field Setup information
v1.0  0 0.000000 0.000000 0.000000 0.000000 0.000000 0.000000 NONE 0 0 0 0 1 0 0 0 0 0 0 0 0
