#	Name:			PISM01081
#	Creating user name:	Qinrunwen
#	Creation time:		Mon Apr 01 10:15:10 2019

#	Modifying user name:	Qinrunwen
#	Modification time:	Mon Apr 01 10:20:41 2019

@<TRIPOS>MOLECULE
PISM01081
   37    41     1     1     0
SMALL
GAST_HUCK


@<TRIPOS>ATOM
      1 C1         -4.9297   40.0397    7.6350 C.ar      1 <1>         0.0945 
      2 C2         -4.3123   39.3939    8.7107 C.ar      1 <1>         0.1254 
      3 C3         -4.6962   39.7102   10.0200 C.ar      1 <1>         0.0522 
      4 C4         -5.7150   40.6417   10.2360 C.ar      1 <1>        -0.0523 
      5 C5         -6.3512   41.2645    9.1567 C.ar      1 <1>        -0.0277 
      6 C6         -5.9460   40.9752    7.8511 C.ar      1 <1>         0.1492 
      7 O7         -3.3173   38.4466    8.4611 O.3       1 <1>        -0.3180 
      8 I8         -3.7835   38.8329   11.6381 I         1 <1>        -0.0535 
      9 I9         -4.3445   39.6083    5.7147 I         1 <1>        -0.0575 
     10 O10        -6.5376   41.5991    6.7513 O.3       1 <1>        -0.2193 
     11 C11        -7.5658   42.5318    6.8965 C.ar      1 <1>         0.1492 
     12 C12        -8.0623   42.8751    8.1571 C.ar      1 <1>        -0.0277 
     13 C13        -7.4827   42.2517    9.4211 C.3       1 <1>         0.0751 
     14 O14        -7.0084   43.3040   10.3023 O.3       1 <1>        -0.3553 
     15 C15        -7.6851   43.2344   11.4558 C.2       1 <1>         0.2521 
     16 C16        -8.7013   42.1284   11.4470 C.ar      1 <1>         0.0584 
     17 C17        -8.5874   41.5421   10.2011 C.ar      1 <1>        -0.0563 
     18 O18        -7.4951   43.9832   12.3994 O.2       1 <1>        -0.3531 
     19 C19        -9.6127   41.6823   12.4018 C.ar      1 <1>        -0.0291 
     20 C20       -10.4349   40.6057   12.0471 C.ar      1 <1>        -0.0436 
     21 C21       -10.3358   40.0135   10.7789 C.ar      1 <1>        -0.0454 
     22 C22        -9.4086   40.4757    9.8354 C.ar      1 <1>        -0.0578 
     23 C23        -8.1051   43.1275    5.7522 C.ar      1 <1>         0.0945 
     24 C24        -9.1498   44.0534    5.8615 C.ar      1 <1>         0.1254 
     25 C25        -9.6577   44.3778    7.1226 C.ar      1 <1>         0.0522 
     26 C26        -9.1034   43.8019    8.2677 C.ar      1 <1>        -0.0523 
     27 I27        -7.3464   42.6193    3.9114 I         1 <1>        -0.0575 
     28 O28        -9.6975   44.6526    4.7253 O.3       1 <1>        -0.3180 
     29 I29       -11.2164   45.7021    7.2957 I         1 <1>        -0.0535 
     30 H1         -6.0120   40.8827   11.2518 H         1 <1>         0.0743 
     31 H2         -3.4488   37.6391    8.9460 H         1 <1>         0.2577 
     32 H3         -9.6742   42.1563   13.3753 H         1 <1>         0.0709 
     33 H4        -11.1567   40.2267   12.7638 H         1 <1>         0.0735 
     34 H5        -10.9871   39.1829   10.5235 H         1 <1>         0.0687 
     35 H6         -9.3254   40.0250    8.8519 H         1 <1>         0.0727 
     36 H7         -9.4834   44.0784    9.2459 H         1 <1>         0.0743 
     37 H8         -9.0403   45.1014    4.2048 H         1 <1>         0.2577 
@<TRIPOS>BOND
     1    2    1 ar   
     2    2    3 ar   
     3    3    4 ar   
     4    4    5 ar   
     5    5    6 ar   
     6    1    6 ar   
     7    2    7 1    
     8    3    8 1    
     9    1    9 1    
    10    6   10 1    
    11   10   11 1    
    12   11   12 ar   
    13   12   13 1    
    14    5   13 1    
    15   13   14 1    
    16   14   15 1    
    17   15   16 1    
    18   16   17 ar   
    19   13   17 1    
    20   15   18 2    
    21   16   19 ar   
    22   19   20 ar   
    23   20   21 ar   
    24   21   22 ar   
    25   17   22 ar   
    26   11   23 ar   
    27   23   24 ar   
    28   24   25 ar   
    29   25   26 ar   
    30   12   26 ar   
    31   23   27 1    
    32   24   28 1    
    33   25   29 1    
    34    4   30 1    
    35    7   31 1    
    36   19   32 1    
    37   20   33 1    
    38   21   34 1    
    39   22   35 1    
    40   26   36 1    
    41   28   37 1    
@<TRIPOS>SUBSTRUCTURE
     1 ****        2 TEMP              0 ****  ****    0 ROOT 
@<TRIPOS>NORMAL
@<TRIPOS>FF_PBC
FORCE_FIELD_SETUP_FEATURE Force Field Setup information
v1.0  0 0.000000 0.000000 0.000000 0.000000 0.000000 0.000000 NONE 0 0 0 0 1 0 0 0 0 0 0 0 0
