#	Name:			PISM00749.1
#	Creating user name:	malab
#	Creation time:		Fri Apr 05 22:21:26 2019

#	Modifying user name:	malab
#	Modification time:	Fri Apr 05 22:21:45 2019

@<TRIPOS>MOLECULE
PISM00749.1
   64    68     1     1     0
SMALL
GAST_HUCK


@<TRIPOS>ATOM
      1 C1          0.6459   -6.3090   -4.5965 C.2       1 <1>         0.0355 
      2 C2          1.1773   -6.0574   -5.8095 C.2       1 <1>        -0.0236 
      3 N3          2.4777   -5.5697   -5.4479 N.2       1 <1>        -0.3303 
      4 C4          2.6060   -5.5711   -4.2016 C.2       1 <1>         0.0968 
      5 N5          1.5162   -6.0136   -3.6522 N.pl3     1 <1>        -0.2556 
      6 C6          1.3321   -6.1602   -2.2059 C.3       1 <1>         0.0891 
      7 C7         -0.0643   -6.4766   -1.5927 C.3       1 <1>         0.1895 
      8 O8         -0.9597   -5.3594   -1.6101 O.3       1 <1>        -0.3825 
      9 C9         -2.2561   -5.8828   -1.2973 C.3       1 <1>         0.0669 
     10 C10        -2.2308   -7.1940   -2.1178 C.3       1 <1>         0.0996 
     11 O11        -0.8272   -7.4585   -2.3130 O.3       1 <1>        -0.3769 
     12 C12         0.1652   -6.8990   -0.1292 C.ar      1 <1>         0.0198 
     13 C13         0.1137   -5.9346    0.8853 C.ar      1 <1>        -0.0348 
     14 C14         0.2665   -6.3012    2.2251 C.ar      1 <1>        -0.0183 
     15 C15         0.4933   -7.6382    2.5569 C.ar      1 <1>         0.0716 
     16 C16         0.5753   -8.6007    1.5485 C.ar      1 <1>        -0.0038 
     17 C17         0.4324   -8.2326    0.2077 C.ar      1 <1>         0.0705 
     18 Cl18        0.6790   -8.1070    4.2344 Cl        1 <1>        -0.0423 
     19 Cl19        0.6063   -9.4664   -1.0252 Cl        1 <1>        -0.0423 
     20 C20        -2.9619   -6.9850   -3.4748 C.3       1 <1>         0.0948 
     21 O21        -2.5863   -5.6936   -3.9896 O.3       1 <1>        -0.3239 
     22 C22        -3.0795   -5.1549   -5.1786 C.ar      1 <1>         0.0777 
     23 C23        -2.1944   -4.4801   -6.0220 C.ar      1 <1>        -0.0443 
     24 C24        -2.6633   -3.8086   -7.1525 C.ar      1 <1>        -0.0524 
     25 C25        -4.0335   -3.7751   -7.4309 C.ar      1 <1>         0.0295 
     26 C26        -4.9033   -4.5499   -6.6527 C.ar      1 <1>        -0.0524 
     27 C27        -4.4312   -5.2379   -5.5296 C.ar      1 <1>        -0.0443 
     28 N28        -4.4967   -2.9848   -8.4322 N.pl3     1 <1>        -0.3108 
     29 C29        -3.9795   -1.6259   -8.5849 C.3       1 <1>         0.0451 
     30 C30        -5.1039   -0.6990   -9.1084 C.3       1 <1>         0.0531 
     31 N31        -5.6290   -1.2279  -10.3668 N.am      1 <1>        -0.2697 
     32 C32        -5.5096   -2.6552  -10.6736 C.3       1 <1>         0.0531 
     33 C33        -5.5395   -3.4524   -9.3430 C.3       1 <1>         0.0451 
     34 C34        -6.2254   -0.3601  -11.2290 C.2       1 <1>         0.1755 
     35 O35        -6.3588    0.8191  -10.9428 O.2       1 <1>        -0.3972 
     36 C36        -6.7612   -0.7909  -12.5694 C.3       1 <1>         0.0258 
     37 H1         -0.3579   -6.7020   -4.4878 H         1 <1>         0.0860 
     38 H2          0.7436   -6.1875   -6.8013 H         1 <1>         0.0444 
     39 H3          3.5106   -5.2486   -3.6836 H         1 <1>         0.1214 
     40 H4          2.0141   -6.9766   -1.9237 H         1 <1>         0.0574 
     41 H5          1.6810   -5.2348   -1.7207 H         1 <1>         0.0574 
     42 H6         -3.0538   -5.1781   -1.5802 H         1 <1>         0.0575 
     43 H7         -2.3518   -6.0977   -0.2204 H         1 <1>         0.0575 
     44 H8         -2.6743   -8.0386   -1.5636 H         1 <1>         0.0635 
     45 H9         -0.0482   -4.8903    0.6391 H         1 <1>         0.0847 
     46 H10         0.2085   -5.5504    3.0065 H         1 <1>         0.0703 
     47 H11         0.7538   -9.6393    1.8068 H         1 <1>         0.0708 
     48 H12        -4.0437   -7.0233   -3.2797 H         1 <1>         0.0635 
     49 H13        -2.6930   -7.7875   -4.1794 H         1 <1>         0.0635 
     50 H14        -1.1371   -4.4688   -5.7889 H         1 <1>         0.0511 
     51 H15        -1.9566   -3.3117   -7.8081 H         1 <1>         0.0490 
     52 H16        -5.9563   -4.6143   -6.9030 H         1 <1>         0.0490 
     53 H17        -5.1295   -5.8166   -4.9377 H         1 <1>         0.0511 
     54 H18        -3.1458   -1.6319   -9.3054 H         1 <1>         0.0529 
     55 H19        -3.6104   -1.2269   -7.6246 H         1 <1>         0.0529 
     56 H20        -4.6864    0.3143   -9.2286 H         1 <1>         0.0541 
     57 H21        -5.9187   -0.6602   -8.3679 H         1 <1>         0.0541 
     58 H22        -4.5537   -2.8350  -11.1920 H         1 <1>         0.0541 
     59 H23        -6.3303   -3.0386  -11.2989 H         1 <1>         0.0541 
     60 H24        -5.4167   -4.5285   -9.5501 H         1 <1>         0.0529 
     61 H25        -6.5210   -3.2887   -8.8710 H         1 <1>         0.0529 
     62 H26        -6.9771    0.0908  -13.1918 H         1 <1>         0.0467 
     63 H27        -7.6948   -1.3546  -12.4330 H         1 <1>         0.0467 
     64 H28        -6.0246   -1.4063  -13.1036 H         1 <1>         0.0467 
@<TRIPOS>BOND
     1    2    1 2    
     2    2    3 1    
     3    3    4 2    
     4    4    5 1    
     5    1    5 1    
     6    5    6 1    
     7    6    7 1    
     8    7    8 1    
     9    8    9 1    
    10    9   10 1    
    11   10   11 1    
    12    7   11 1    
    13    7   12 1    
    14   12   13 ar   
    15   13   14 ar   
    16   14   15 ar   
    17   15   16 ar   
    18   16   17 ar   
    19   12   17 ar   
    20   15   18 1    
    21   17   19 1    
    22   10   20 1    
    23   20   21 1    
    24   21   22 1    
    25   22   23 ar   
    26   23   24 ar   
    27   24   25 ar   
    28   25   26 ar   
    29   26   27 ar   
    30   22   27 ar   
    31   25   28 1    
    32   28   29 1    
    33   29   30 1    
    34   30   31 1    
    35   31   32 1    
    36   32   33 1    
    37   28   33 1    
    38   31   34 am   
    39   34   35 2    
    40   34   36 1    
    41    1   37 1    
    42    2   38 1    
    43    4   39 1    
    44    6   40 1    
    45    6   41 1    
    46    9   42 1    
    47    9   43 1    
    48   10   44 1    
    49   13   45 1    
    50   14   46 1    
    51   16   47 1    
    52   20   48 1    
    53   20   49 1    
    54   23   50 1    
    55   24   51 1    
    56   26   52 1    
    57   27   53 1    
    58   29   54 1    
    59   29   55 1    
    60   30   56 1    
    61   30   57 1    
    62   32   58 1    
    63   32   59 1    
    64   33   60 1    
    65   33   61 1    
    66   36   62 1    
    67   36   63 1    
    68   36   64 1    
@<TRIPOS>SUBSTRUCTURE
     1 ****        2 TEMP              0 ****  ****    0 ROOT 
@<TRIPOS>NORMAL
@<TRIPOS>FF_PBC
FORCE_FIELD_SETUP_FEATURE Force Field Setup information
v1.0  0 0.000000 0.000000 0.000000 0.000000 0.000000 0.000000 NONE 0 0 0 0 1 0 0 0 0 0 0 0 0
