#	Name:			PISM00507
#	Creating user name:	malab
#	Creation time:		Thu Apr 04 11:13:38 2019

#	Modifying user name:	malab
#	Modification time:	Thu Apr 04 11:15:08 2019

@<TRIPOS>MOLECULE
PISM00507
   26    25     1     1     0
SMALL
GAST_HUCK


@<TRIPOS>ATOM
      1 O1         -5.1231   -2.1262   -3.4558 O.3       1 <1>        -0.2705 
      2 C2         -4.1663   -1.5168   -2.7650 C.2       1 <1>        -0.0019 
      3 O3         -3.0510   -1.3579   -3.2381 O.2       1 <1>        -0.7043 
      4 C4         -4.5509   -1.0429   -1.3852 C.3       1 <1>        -0.0328 
      5 C5         -3.3575   -0.3489   -0.6710 C.3       1 <1>        -0.0513 
      6 C6         -3.6530   -0.0384    0.7776 C.2       1 <1>        -0.0135 
      7 C7         -4.6196   -0.6375    1.4758 C.2       1 <1>        -0.0607 
      8 C8         -5.4837   -1.6155    0.7993 C.2       1 <1>         0.0242 
      9 O9         -6.5730   -1.8415    1.3115 O.2       1 <1>        -0.4645 
     10 C10        -5.0799   -2.2151   -0.5215 C.3       1 <1>        -0.0057 
     11 O11        -2.8930    0.8896    1.3447 O.3       1 <1>        -0.2507 
     12 C12        -4.8706   -0.3260    2.8949 C.2       1 <1>         0.0238 
     13 O13        -5.7814    0.4514    3.1618 O.2       1 <1>        -0.4646 
     14 C14        -4.0496   -0.9797    3.9715 C.3       1 <1>        -0.0071 
     15 C15        -3.7671   -0.0617    5.1842 C.3       1 <1>        -0.0535 
     16 Ca16       -6.9294    0.0646    1.6294 Ca        0 <0>         2.0000 
     17 H2         -5.3624   -0.3058   -1.5190 H         1 <1>         0.0279 
     18 H3         -3.1074    0.5775   -1.2135 H         1 <1>         0.0274 
     19 H4         -2.4687   -1.0007   -0.6741 H         1 <1>         0.0274 
     20 H5         -5.9501   -2.6691   -1.0170 H         1 <1>         0.0442 
     21 H6         -4.3111   -2.9916   -0.3979 H         1 <1>         0.0442 
     22 H8         -3.0924   -1.3022    3.5297 H         1 <1>         0.0436 
     23 H9         -4.6002   -1.8682    4.3212 H         1 <1>         0.0436 
     24 H10        -4.7063    0.2497    5.6718 H         1 <1>         0.0250 
     25 H11        -3.2152    0.8305    4.8499 H         1 <1>         0.0250 
     26 H12        -3.1474   -0.5922    5.9257 H         1 <1>         0.0250 
@<TRIPOS>BOND
     1    2    1 1    
     2    2    3 2    
     3    2    4 1    
     4    4    5 1    
     5    5    6 1    
     6    6    7 2    
     7    7    8 1    
     8    8    9 2    
     9    8   10 1    
    10    4   10 1    
    11    6   11 1    
    12    7   12 1    
    13   12   13 2    
    14   12   14 1    
    15   14   15 1    
    16    4   17 1    
    17    5   18 1    
    18    5   19 1    
    19   10   20 1    
    20   10   21 1    
    21   14   22 1    
    22   14   23 1    
    23   15   24 1    
    24   15   25 1    
    25   15   26 1    
@<TRIPOS>SUBSTRUCTURE
     1 ****        2 TEMP              0 ****  ****    0 ROOT 
@<TRIPOS>NORMAL
@<TRIPOS>FF_PBC
FORCE_FIELD_SETUP_FEATURE Force Field Setup information
v1.0  0 0.000000 0.000000 0.000000 0.000000 0.000000 0.000000 NONE 0 0 0 0 1 0 0 0 0 0 0 0 0
