#	Name:			PISM00217
#	Creating user name:	14062
#	Creation time:		Mon Apr 01 21:57:47 2019

#	Modifying user name:	14062
#	Modification time:	Mon Apr 01 21:58:34 2019

@<TRIPOS>MOLECULE
PISM00217
   37    39     1     2     0
SMALL
GAST_HUCK


@<TRIPOS>ATOM
      1 N1          2.3728    8.6489    1.9922 N.pl3     1 <1>        -0.2884 
      2 C2          1.3336    9.2732    1.4039 C.ar      1 <1>         0.0606 
      3 C3          0.7627    8.4316    0.4699 C.ar      1 <1>        -0.0189 
      4 C4         -0.3646    8.7922   -0.2665 C.ar      1 <1>        -0.0745 
      5 C5         -0.8765   10.0777   -0.0470 C.ar      1 <1>        -0.0792 
      6 C6         -0.2800   10.9483    0.8793 C.ar      1 <1>        -0.0767 
      7 C7          1.6478    7.2140    0.5418 C.2       1 <1>        -0.0209 
      8 C8          2.5636    7.4514    1.4979 C.2       1 <1>         0.0197 
      9 C9          0.8382   10.5570    1.6275 C.ar      1 <1>        -0.0442 
     10 C10         1.4814    5.9902   -0.3233 C.3       1 <1>         0.0912 
     11 C11         0.4972    5.0748    0.3585 C.2       1 <1>         0.2417 
     12 O12        -0.3938    4.5123   -0.2585 O.2       1 <1>        -0.3685 
     13 O13         0.6580    4.9177    1.6729 O.3       1 <1>        -0.2916 
     14 C14         2.8274    5.2955   -0.6837 C.3       1 <1>         0.0462 
     15 C15         3.1010    4.0563    0.1312 C.2       1 <1>         0.1329 
     16 O16         3.5545    4.2074    1.2530 O.2       1 <1>        -0.3827 
     17 C17         2.8477    2.6596   -0.4039 C.ar      1 <1>         0.0622 
     18 C18         3.5593    1.5768    0.1293 C.ar      1 <1>         0.1508 
     19 C19         3.4168    0.2969   -0.4135 C.ar      1 <1>         0.0117 
     20 C20         2.5546    0.0808   -1.4893 C.ar      1 <1>         0.1362 
     21 C21         1.7882    1.1393   -1.9807 C.ar      1 <1>        -0.0260 
     22 C22         1.9252    2.4186   -1.4322 C.ar      1 <1>        -0.0464 
     23 F23         2.4615   -1.1274   -2.0420 F         1 <1>        -0.1802 
     24 F24         4.3909    1.7457    1.1543 F         1 <1>        -0.1781 
     25 H1          2.9472    9.0655    2.7409 H         1 <1>         0.2219 
     26 H2         -0.8231    8.1080   -0.9723 H         1 <1>         0.0540 
     27 H3         -1.7501   10.4047   -0.6021 H         1 <1>         0.0510 
     28 H4         -0.6922   11.9431    1.0196 H         1 <1>         0.0530 
     29 H5          3.3450    6.7593    1.8147 H         1 <1>         0.0804 
     30 H6          1.3032   11.2208    2.3488 H         1 <1>         0.0541 
     31 H7          1.0285    6.3544   -1.2600 H         1 <1>         0.0659 
     32 H8          0.0012    4.3357    2.0367 H         1 <1>         0.2540 
     33 H9          3.6670    5.9974   -0.5594 H         1 <1>         0.0526 
     34 H10         2.8343    5.0075   -1.7462 H         1 <1>         0.0526 
     35 H11         3.9787   -0.5331    0.0003 H         1 <1>         0.0603 
     36 H12         1.0869    0.9603   -2.7894 H         1 <1>         0.0583 
     37 H13         1.3001    3.2160   -1.8179 H         1 <1>         0.0652 
@<TRIPOS>BOND
     1    8    1 1    
     2    1    2 1    
     3    2    3 ar   
     4    3    7 1    
     5    3    4 ar   
     6    4    5 ar   
     7    5    6 ar   
     8    7    8 2    
     9    6    9 ar   
    10    2    9 ar   
    11    7   10 1    
    12   10   11 1    
    13   11   12 2    
    14   11   13 1    
    15   10   14 1    
    16   14   15 1    
    17   15   16 2    
    18   15   17 1    
    19   17   18 ar   
    20   18   19 ar   
    21   19   20 ar   
    22   20   21 ar   
    23   21   22 ar   
    24   17   22 ar   
    25   20   23 1    
    26   18   24 1    
    27    1   25 1    
    28    4   26 1    
    29    5   27 1    
    30    6   28 1    
    31    8   29 1    
    32    9   30 1    
    33   10   31 1    
    34   13   32 1    
    35   14   33 1    
    36   14   34 1    
    37   19   35 1    
    38   21   36 1    
    39   22   37 1    
@<TRIPOS>SUBSTRUCTURE
     1 ****        7 TEMP              0 ****  ****    0 ROOT 
@<TRIPOS>NORMAL
@<TRIPOS>FF_PBC
FORCE_FIELD_SETUP_FEATURE Force Field Setup information
v1.0  0 0.000000 0.000000 0.000000 0.000000 0.000000 0.000000 NONE 0 0 0 0 1 0 0 0 0 0 0 0 0
@<TRIPOS>RENDERING_ATTRS
ANTIALIASED_LINES 
1,2,3,4,5,6,7,8,9,10,11,12,13,14,15,16,17,18,19,20,21,22,23,24
