#	Name:			PISM00807
#	Creating user name:	baoopengkun
#	Creation time:		Sat Dec 15 02:25:18 2018

#	Modifying user name:	baoopengkun
#	Modification time:	Sat Dec 15 02:28:24 2018

@<TRIPOS>MOLECULE
PISM00807
   28    28     1     1     0
SMALL
GAST_HUCK


@<TRIPOS>ATOM
      1 H1         10.8601   20.0221  -52.5076 H         1 <1>         0.0308 
      2 H2         10.3738   18.2806  -52.0905 H         1 <1>         0.0308 
      3 H3          9.0901   20.9205  -51.2006 H         1 <1>         0.0552 
      4 H4          7.8550   17.0784  -49.4874 H         1 <1>         0.0322 
      5 C5         10.1874   19.3471  -51.9771 C.2       1 <1>        -0.1219 
      6 C6          9.1858   19.8335  -51.2326 C.2       1 <1>        -0.0889 
      7 C7          8.2162   19.0101  -50.4678 C.2       1 <1>        -0.0353 
      8 C8          8.4920   17.5364  -50.2586 C.3       1 <1>        -0.0435 
      9 C9          7.1087   19.5801  -49.9679 C.2       1 <1>         0.0686 
     10 O10         6.2273   18.8411  -49.2767 O.3       1 <1>        -0.2728 
     11 C11         5.0144   19.5245  -48.9071 C.3       1 <1>         0.2458 
     12 C12         4.0394   19.6164  -50.0639 C.2       1 <1>         0.0159 
     13 C13         2.9473   18.8847  -49.8490 C.2       1 <1>         0.0196 
     14 C14         3.1985   18.3152  -48.5304 C.2       1 <1>         0.2325 
     15 O15         4.3455   18.6666  -47.9605 O.3       1 <1>        -0.2328 
     16 C16         1.7473   18.6852  -50.7349 C.3       1 <1>        -0.0421 
     17 C17         4.3530   20.4596  -51.2745 C.3       1 <1>        -0.0223 
     18 O18         2.4085   17.5703  -47.9767 O.2       1 <1>        -0.3822 
     19 H5          9.5370   17.3949  -49.9449 H         1 <1>         0.0322 
     20 H6          8.3247   17.0008  -51.2048 H         1 <1>         0.0322 
     21 H7          6.9567   20.6472  -50.1411 H         1 <1>         0.1024 
     22 H8          5.1860   20.4953  -48.4123 H         1 <1>         0.1237 
     23 H9          2.0655   18.2938  -51.7127 H         1 <1>         0.0303 
     24 H10         1.2256   19.6430  -50.8785 H         1 <1>         0.0303 
     25 H11         1.0511   17.9675  -50.2759 H         1 <1>         0.0303 
     26 H12         5.1700   20.0015  -51.8510 H         1 <1>         0.0429 
     27 H13         4.6475   21.4728  -50.9633 H         1 <1>         0.0429 
     28 H14         3.4769   20.5448  -51.9340 H         1 <1>         0.0429 
@<TRIPOS>BOND
     1    5    1 1    
     2    5    2 1    
     3    6    3 1    
     4    8    4 1    
     5    5    6 2    
     6    6    7 1    
     7    7    8 1    
     8    7    9 2    
     9    9   10 1    
    10   10   11 1    
    11   11   12 1    
    12   12   13 2    
    13   14   13 1    
    14   15   14 1    
    15   11   15 1    
    16   13   16 1    
    17   12   17 1    
    18   14   18 2    
    19    8   19 1    
    20    8   20 1    
    21    9   21 1    
    22   11   22 1    
    23   16   23 1    
    24   16   24 1    
    25   16   25 1    
    26   17   26 1    
    27   17   27 1    
    28   17   28 1    
@<TRIPOS>SUBSTRUCTURE
     1 ****        5 TEMP              0 ****  ****    0 ROOT 
@<TRIPOS>NORMAL
@<TRIPOS>FF_PBC
FORCE_FIELD_SETUP_FEATURE Force Field Setup information
v1.0  0 0.000000 0.000000 0.000000 0.000000 0.000000 0.000000 NONE 0 0 0 0 1 0 0 0 0 0 0 0 0
