#	Name:			PISM00212
#	Creating user name:	14062
#	Creation time:		Mon Apr 01 22:05:42 2019

#	Modifying user name:	14062
#	Modification time:	Mon Apr 01 22:09:46 2019

@<TRIPOS>MOLECULE
PISM00212
   43    45     1     1     0
SMALL
GAST_HUCK


@<TRIPOS>ATOM
      1 C1          1.8802   -0.7538    2.7219 C.3       1 BENZYL      0.0452 
      2 C1          3.1417    0.0699    2.6169 C.2       1 BENZYL      0.1269 
      3 C2          3.6504    0.6228    1.2998 C.ar      1 BENZYL      0.0271 
      4 C3          3.4582   -0.0975    0.1139 C.ar      1 BENZYL     -0.0559 
      5 C4          3.9351    0.3909   -1.1040 C.ar      1 BENZYL     -0.0611 
      6 C5          4.6274    1.6026   -1.1531 C.ar      1 BENZYL     -0.0477 
      7 C6          4.8306    2.3205    0.0309 C.ar      1 BENZYL     -0.0532 
      8 C7          4.3237    1.8534    1.2511 C.ar      1 BENZYL     -0.0332 
      9 C9          1.6347   -1.2497    4.1731 C.3       1 BENZYL      0.0911 
     10 C10         2.6781   -2.2336    4.6486 C.2       1 BENZYL     -0.0209 
     11 C11         2.6744   -2.8701    6.0149 C.ar      1 BENZYL     -0.0189 
     12 C12         3.7962   -3.6754    5.9808 C.ar      1 BENZYL      0.0606 
     13 N13         4.3958   -3.5515    4.7810 N.pl3     1 BENZYL     -0.2884 
     14 C14         3.7564   -2.7147    4.0024 C.2       1 BENZYL      0.0197 
     15 C15         1.8515   -2.7876    7.1357 C.ar      1 BENZYL     -0.0745 
     16 C16         2.2227   -3.5586    8.2462 C.ar      1 BENZYL     -0.0792 
     17 C17         3.3575   -4.3858    8.2129 C.ar      1 BENZYL     -0.0767 
     18 C18         4.1703   -4.4574    7.0732 C.ar      1 BENZYL     -0.0442 
     19 C19         0.2694   -1.9025    4.2358 C.2       1 BENZYL      0.2417 
     20 O20         0.1448   -3.1065    4.0963 O.2       1 BENZYL     -0.3685 
     21 O21        -0.8252   -1.1555    4.4263 O.3       1 BENZYL     -0.2916 
     22 O22         3.7624    0.2994    3.6421 O.2       1 BENZYL     -0.3857 
     23 C23         4.5093    2.7104    2.5147 C.3       1 BENZYL     -0.0288 
     24 C24         5.1456    2.1182   -2.5012 C.3       1 BENZYL     -0.0303 
     25 H1          1.9071   -1.6416    2.0746 H         1 BENZYL      0.0525 
     26 H2          1.0462   -0.1149    2.3925 H         1 BENZYL      0.0525 
     27 H3          2.9462   -1.0512    0.1165 H         1 BENZYL      0.0637 
     28 H4          3.7663   -0.1788   -2.0126 H         1 BENZYL      0.0515 
     29 H5          5.3872    3.2510   -0.0025 H         1 BENZYL      0.0507 
     30 H6          1.6685   -0.3995    4.8733 H         1 BENZYL      0.0659 
     31 H7          5.2581   -4.0512    4.5143 H         1 BENZYL      0.2219 
     32 H8          4.0734   -2.4644    2.9893 H         1 BENZYL      0.0804 
     33 H9          0.9702   -2.1553    7.1415 H         1 BENZYL      0.0540 
     34 H10         1.6214   -3.5140    9.1481 H         1 BENZYL      0.0510 
     35 H11         3.6118   -4.9818    9.0851 H         1 BENZYL      0.0530 
     36 H12         5.0514   -5.0905    7.0391 H         1 BENZYL      0.0541 
     37 H13        -0.6712   -0.2243    4.5187 H         1 BENZYL      0.2540 
     38 H14         5.3118    2.2785    3.1323 H         1 BENZYL      0.0404 
     39 H15         3.5775    2.7429    3.0990 H         1 BENZYL      0.0404 
     40 H16         4.7806    3.7481    2.2674 H         1 BENZYL      0.0404 
     41 H17         6.0444    1.5453   -2.7768 H         1 BENZYL      0.0400 
     42 H18         5.4005    3.1874   -2.4557 H         1 BENZYL      0.0400 
     43 H19         4.3767    1.9759   -3.2762 H         1 BENZYL      0.0400 
@<TRIPOS>BOND
     1    2    3 1    
     2    3    4 ar   
     3    3    8 ar   
     4    8    7 ar   
     5    7    6 ar   
     6    6    5 ar   
     7    5    4 ar   
     8    2    1 1    
     9    1    9 1    
    10    9   10 1    
    11   10   11 1    
    12   11   12 ar   
    13   12   13 1    
    14   13   14 1    
    15   10   14 2    
    16   11   15 ar   
    17   15   16 ar   
    18   16   17 ar   
    19   17   18 ar   
    20   12   18 ar   
    21    9   19 1    
    22   19   20 2    
    23   19   21 1    
    24    2   22 2    
    25    8   23 1    
    26    6   24 1    
    27    1   25 1    
    28    1   26 1    
    29    4   27 1    
    30    5   28 1    
    31    7   29 1    
    32    9   30 1    
    33   13   31 1    
    34   14   32 1    
    35   15   33 1    
    36   16   34 1    
    37   17   35 1    
    38   18   36 1    
    39   21   37 1    
    40   23   38 1    
    41   23   39 1    
    42   23   40 1    
    43   24   41 1    
    44   24   42 1    
    45   24   43 1    
@<TRIPOS>SUBSTRUCTURE
     1 BENZYL      2 PERM              0 ****  ****    0 ROOT 
@<TRIPOS>NORMAL
@<TRIPOS>FF_PBC
FORCE_FIELD_SETUP_FEATURE Force Field Setup information
v1.0  0 0.000000 0.000000 0.000000 0.000000 0.000000 0.000000 NONE 0 0 0 0 1 0 0 0 0 0 0 0 0
