#	Name:			PISM00091
#	Creating user name:	baoopengkun
#	Creation time:		Thu Dec 27 16:38:33 2018

#	Modifying user name:	baoopengkun
#	Modification time:	Thu Dec 27 16:40:11 2018

@<TRIPOS>MOLECULE
PISM00091
   24    24     1     1     0
SMALL
GAST_HUCK


@<TRIPOS>ATOM
      1 O1          0.7483    4.5042  -19.1315 O.3       1 <1>        -0.2972 
      2 C2          1.3956    4.8961  -18.0327 C.2       1 <1>         0.2416 
      3 O3          2.5573    5.2663  -18.0988 O.2       1 <1>        -0.3671 
      4 C4          0.7119    4.8859  -16.7253 C.2       1 <1>         0.0160 
      5 C5         -0.5585    4.4888  -16.5665 C.2       1 <1>        -0.0475 
      6 C6         -1.2930    4.4767  -15.2399 C.ar      1 <1>        -0.0328 
      7 C7         -2.3970    3.6291  -15.0933 C.ar      1 <1>        -0.0672 
      8 C8         -3.0889    3.5567  -13.8807 C.ar      1 <1>        -0.0342 
      9 C9         -2.6828    4.3325  -12.7884 C.ar      1 <1>         0.1234 
     10 C10        -1.5962    5.2019  -12.9379 C.ar      1 <1>         0.1249 
     11 C11        -0.9185    5.2819  -14.1572 C.ar      1 <1>        -0.0285 
     12 O12        -1.1768    5.9986  -11.8699 O.3       1 <1>        -0.3237 
     13 O13        -3.3459    4.2536  -11.5575 O.3       1 <1>        -0.3320 
     14 C14        -2.0128    7.1401  -11.6201 C.3       1 <1>         0.0570 
     15 H1          1.3038    4.5608  -19.9013 H         1 <1>         0.2512 
     16 H2          1.3174    5.2190  -15.8852 H         1 <1>         0.0617 
     17 H3         -1.1061    4.1425  -17.4437 H         1 <1>         0.0733 
     18 H4         -2.7245    3.0140  -15.9260 H         1 <1>         0.0547 
     19 H5         -3.9432    2.8927  -13.7963 H         1 <1>         0.0531 
     20 H6         -0.1046    5.9913  -14.2392 H         1 <1>         0.0541 
     21 H7         -3.9643    3.5351  -11.4893 H         1 <1>         0.2473 
     22 H8         -2.0377    7.8010  -12.5007 H         1 <1>         0.0573 
     23 H9         -1.5885    7.6977  -10.7723 H         1 <1>         0.0573 
     24 H10        -3.0395    6.8380  -11.3625 H         1 <1>         0.0573 
@<TRIPOS>BOND
     1    2    1 1    
     2    2    3 2    
     3    2    4 1    
     4    4    5 2    
     5    5    6 1    
     6    6    7 ar   
     7    7    8 ar   
     8    8    9 ar   
     9    9   10 ar   
    10   10   11 ar   
    11    6   11 ar   
    12   10   12 1    
    13    9   13 1    
    14   12   14 1    
    15    1   15 1    
    16    4   16 1    
    17    5   17 1    
    18    7   18 1    
    19    8   19 1    
    20   11   20 1    
    21   13   21 1    
    22   14   22 1    
    23   14   23 1    
    24   14   24 1    
@<TRIPOS>SUBSTRUCTURE
     1 ****        2 TEMP              0 ****  ****    0 ROOT 
@<TRIPOS>NORMAL
@<TRIPOS>FF_PBC
FORCE_FIELD_SETUP_FEATURE Force Field Setup information
v1.0  0 0.000000 0.000000 0.000000 0.000000 0.000000 0.000000 NONE 0 0 0 0 1 0 0 0 0 0 0 0 0
