#	Name:			PISM00357
#	Creating user name:	malab
#	Creation time:		Tue Apr 02 19:22:01 2019

#	Modifying user name:	malab
#	Modification time:	Tue Apr 02 19:23:12 2019

@<TRIPOS>MOLECULE
PISM00357
   49    50     1     1     0
SMALL
GAST_HUCK


@<TRIPOS>ATOM
      1 C1          9.5874    2.4265   -0.7117 C.2       1 <1>         0.1612 
      2 N2         10.7939    2.0904   -0.6716 N.2       1 <1>        -0.3128 
      3 C3         11.0464    1.0118   -1.5788 C.2       1 <1>        -0.0082 
      4 C4          9.8122    0.8243   -2.0798 C.2       1 <1>         0.0643 
      5 N5          8.9284    1.6489   -1.5354 N.pl3     1 <1>        -0.1889 
      6 C6          7.6354    1.6659   -1.8220 C.2       1 <1>         0.1194 
      7 C7          6.5967    2.0268   -0.7377 C.3       1 <1>         0.1320 
      8 O8          7.2926    2.0954    0.5218 O.3       1 <1>        -0.3711 
      9 C9          9.1814    3.6313    0.0470 C.2       1 <1>         0.0087 
     10 C10         9.9022    4.1024    1.0716 C.2       1 <1>         0.0278 
     11 C11         7.3009    1.3593   -3.0917 C.2       1 <1>        -0.0346 
     12 C12         5.2595    2.7008   -3.7217 C.ar      1 <1>        -0.0672 
     13 C13         4.0096    2.8127   -4.3373 C.ar      1 <1>        -0.0569 
     14 C14         3.4639    1.7192   -5.0151 C.ar      1 <1>         0.0314 
     15 C15         4.1659    0.5125   -5.0743 C.ar      1 <1>        -0.0569 
     16 C16         5.4092    0.3948   -4.4454 C.ar      1 <1>        -0.0672 
     17 Cl17        1.9007    1.8623   -5.7915 Cl        1 <1>        -0.0781 
     18 C18         5.9504    1.4844   -3.7553 C.ar      1 <1>        -0.0504 
     19 C19         5.3915    1.0367   -0.4220 C.3       1 <1>         0.0047 
     20 C20         5.8160   -0.4436   -0.6614 C.3       1 <1>        -0.0551 
     21 C21         4.9457    1.1662    1.0797 C.3       1 <1>        -0.0551 
     22 C22         4.0884    1.3240   -1.2408 C.3       1 <1>        -0.0551 
     23 C23         9.5674    5.3384    1.8050 C.2       1 <1>         0.2505 
     24 O24        10.1407    6.3686    1.4962 O.2       1 <1>        -0.3627 
     25 O25         8.6709    5.3710    2.8045 O.3       1 <1>        -0.2835 
     26 C26         7.9868    4.1337    3.0757 C.3       1 <1>         0.0640 
     27 H1         11.9810    0.4948   -1.7937 H         1 <1>         0.0520 
     28 H2          9.6750    0.0301   -2.8130 H         1 <1>         0.0951 
     29 H3          6.2052    3.0392   -0.9114 H         1 <1>         0.0852 
     30 H4          7.7432    1.2903    0.7640 H         1 <1>         0.2142 
     31 H5          8.2899    4.1811   -0.2486 H         1 <1>         0.0782 
     32 H6         10.8040    3.5861    1.3976 H         1 <1>         0.0691 
     33 H7          8.0090    1.0422   -3.8526 H         1 <1>         0.0314 
     34 H8          5.6927    3.5641   -3.2293 H         1 <1>         0.0543 
     35 H9          3.4623    3.7481   -4.2921 H         1 <1>         0.0600 
     36 H10         3.7437   -0.3323   -5.6085 H         1 <1>         0.0600 
     37 H11         5.9524   -0.5439   -4.4928 H         1 <1>         0.0543 
     38 H12         4.9904   -1.1242   -0.4022 H         1 <1>         0.0238 
     39 H13         6.6864   -0.7164   -0.0471 H         1 <1>         0.0238 
     40 H14         6.0753   -0.6193   -1.7147 H         1 <1>         0.0238 
     41 H15         4.7000    2.2162    1.3034 H         1 <1>         0.0238 
     42 H16         5.7096    0.8299    1.7956 H         1 <1>         0.0238 
     43 H17         4.0588    0.5538    1.3047 H         1 <1>         0.0238 
     44 H18         3.8974    2.4044   -1.3190 H         1 <1>         0.0238 
     45 H19         3.1967    0.8691   -0.7837 H         1 <1>         0.0238 
     46 H20         4.1204    0.8843   -2.2379 H         1 <1>         0.0238 
     47 H21         7.3270    3.8634    2.2397 H         1 <1>         0.0574 
     48 H22         7.3557    4.3011    3.9610 H         1 <1>         0.0574 
     49 H23         8.6778    3.3054    3.2987 H         1 <1>         0.0574 
@<TRIPOS>BOND
     1    2    1 2    
     2    2    3 1    
     3    3    4 2    
     4    4    5 1    
     5    1    5 1    
     6    5    6 1    
     7    6    7 1    
     8    7    8 1    
     9   10   23 1    
    10    1    9 1    
    11    9   10 2    
    12    6   11 2    
    13   18   12 ar   
    14   12   13 ar   
    15   13   14 ar   
    16   14   15 ar   
    17   15   16 ar   
    18   18   16 ar   
    19   11   18 1    
    20   14   17 1    
    21    7   19 1    
    22   19   20 1    
    23   19   21 1    
    24   19   22 1    
    25   23   24 2    
    26   23   25 1    
    27   25   26 1    
    28    3   27 1    
    29    4   28 1    
    30    7   29 1    
    31    8   30 1    
    32    9   31 1    
    33   10   32 1    
    34   11   33 1    
    35   12   34 1    
    36   13   35 1    
    37   15   36 1    
    38   16   37 1    
    39   20   38 1    
    40   20   39 1    
    41   20   40 1    
    42   21   41 1    
    43   21   42 1    
    44   21   43 1    
    45   22   44 1    
    46   22   45 1    
    47   22   46 1    
    48   26   47 1    
    49   26   48 1    
    50   26   49 1    
@<TRIPOS>SUBSTRUCTURE
     1 ****        2 TEMP              0 ****  ****    0 ROOT 
@<TRIPOS>NORMAL
@<TRIPOS>FF_PBC
FORCE_FIELD_SETUP_FEATURE Force Field Setup information
v1.0  0 0.000000 0.000000 0.000000 0.000000 0.000000 0.000000 NONE 0 0 0 0 1 0 0 0 0 0 0 0 0
