#	Name:			PISM00416
#	Creating user name:	malab
#	Creation time:		Wed Apr 10 23:23:23 2019

#	Modifying user name:	malab
#	Modification time:	Wed Apr 10 23:26:42 2019

@<TRIPOS>MOLECULE
PISM00416
   45    45     1     2     0
SMALL
USER_CHARGES


@<TRIPOS>ATOM
      1 C1        -13.2810   -0.6550    8.9896 C.3       1 <1>         0.0000 
      2 C2        -12.8294    0.7836    9.3771 C.3       1 <1>         0.0000 
      3 C3        -13.5606    1.2319   10.6123 C.2       1 <1>         0.0000 
      4 C4        -14.8700    0.6543   10.9632 C.2       1 <1>         0.0000 
      5 C5        -15.4927   -0.2248   10.1638 C.2       1 <1>         0.0000 
      6 C6        -14.8467   -0.6396    8.8516 C.3       1 <1>         0.0000 
      7 C7        -12.8006   -1.6496   10.0980 C.3       1 <1>         0.0000 
      8 C8        -12.5780   -1.0609    7.6572 C.3       1 <1>         0.0000 
      9 O9        -13.0619    2.0800   11.3351 O.2       1 <1>         0.0000 
     10 C10       -16.8502   -0.8294   10.4790 C.3       1 <1>         0.0000 
     11 C11       -18.0744   -3.7520    6.8058 C.2       1 <1>         0.0000 
     12 C12       -19.2064   -2.8227    7.0027 C.2       1 <1>         0.0000 
     13 O13       -20.3066   -3.1400    6.5748 O.2       1 <1>         0.0000 
     14 C14       -15.3859   -1.9834    8.3879 C.2       1 <1>         0.0000 
     15 O15       -15.2734    0.4152    7.9680 O.3       1 <1>         0.0000 
     16 O16       -19.0276   -1.6660    7.6495 O.3       1 <1>         0.0000 
     17 C17       -15.7510   -4.5825    6.7874 C.3       1 <1>         0.0000 
     18 H1        -13.0421    1.5067    8.5749 H         1 <1>         0.0000 
     19 H2        -11.7438    0.8027    9.5634 H         1 <1>         0.0000 
     20 H3        -15.2930    0.9900   11.9075 H         1 <1>         0.0000 
     21 H4        -12.9322   -2.6971    9.7938 H         1 <1>         0.0000 
     22 C22       -17.6231   -0.2485   11.6950 C.3       1 <1>         0.0000 
     23 H5        -13.3321   -1.5054   11.0491 H         1 <1>         0.0000 
     24 H6        -11.7265   -1.5128   10.2958 H         1 <1>         0.0000 
     25 C25       -16.2958   -2.1521    7.4182 C.2       1 <1>         0.0000 
     26 H7        -12.9236   -2.0482    7.3162 H         1 <1>         0.0000 
     27 H8        -11.4886   -1.1161    7.8063 H         1 <1>         0.0000 
     28 H9        -12.7583   -0.3359    6.8512 H         1 <1>         0.0000 
     29 H10       -16.7277   -1.9115   10.6441 H         1 <1>         0.0000 
     30 H11       -17.4838   -0.6798    9.5912 H         1 <1>         0.0000 
     31 H12       -18.3514   -4.7529    6.4720 H         1 <1>         0.0000 
     32 H13       -15.0342   -2.8850    8.8841 H         1 <1>         0.0000 
     33 C33       -16.7731   -3.4889    7.0039 C.2       1 <1>         0.0000 
     34 H14       -14.9649    0.3274    7.0741 H         1 <1>         0.0000 
     35 H15       -19.8190   -1.1438    7.7291 H         1 <1>         0.0000 
     36 H16       -15.7523   -5.2592    7.6550 H         1 <1>         0.0000 
     37 H17       -14.7404   -4.1632    6.6671 H         1 <1>         0.0000 
     38 H18       -15.9816   -5.1642    5.8817 H         1 <1>         0.0000 
     39 H39       -17.7430    0.8411   11.5728 H         1 <1>         0.0000 
     40 H20       -17.0638   -0.4457   12.6248 H         1 <1>         0.0000 
     41 C41       -19.0298   -0.8903   11.8271 C.3       1 <1>         0.0000 
     42 H22       -16.7213   -1.2986    6.8939 H         1 <1>         0.0000 
     43 H19       -19.5577   -0.4691   12.6975 H         1 <1>         0.0000 
     44 H21       -18.9441   -1.9797   11.9635 H         1 <1>         0.0000 
     45 H23       -19.6313   -0.6940   10.9255 H         1 <1>         0.0000 
@<TRIPOS>BOND
     1    2    1 1    
     2    2    3 1    
     3    3    4 1    
     4    4    5 2    
     5    5    6 1    
     6    1    6 1    
     7    1    7 1    
     8    1    8 1    
     9    3    9 2    
    10    5   10 1    
    11   33   11 2    
    12   11   12 1    
    13   12   13 2    
    14    6   14 1    
    15    6   15 1    
    16   12   16 1    
    17   33   17 1    
    18    2   18 1    
    19    2   19 1    
    20    4   20 1    
    21    7   21 1    
    22   10   22 1    
    23    7   23 1    
    24    7   24 1    
    25   14   25 2    
    26    8   26 1    
    27    8   27 1    
    28    8   28 1    
    29   10   29 1    
    30   10   30 1    
    31   11   31 1    
    32   14   32 1    
    33   25   33 1    
    34   15   34 1    
    35   16   35 1    
    36   17   36 1    
    37   17   37 1    
    38   17   38 1    
    39   22   39 1    
    40   22   40 1    
    41   22   41 1    
    42   25   42 1    
    43   41   43 1    
    44   41   44 1    
    45   41   45 1    
@<TRIPOS>SUBSTRUCTURE
     1 ****        2 TEMP              0 ****  ****    0 ROOT 
@<TRIPOS>NORMAL
@<TRIPOS>FF_PBC
FORCE_FIELD_SETUP_FEATURE Force Field Setup information
v1.0  0 0.000000 0.000000 0.000000 0.000000 0.000000 0.000000 NONE 0 0 0 0 0 0 0 0 0 0 0 0 0
@<TRIPOS>RENDERING_ATTRS
ANTIALIASED_LINES 
*
