#	Name:			PISM00363
#	Creating user name:	malab
#	Creation time:		Tue Apr 02 20:32:38 2019

#	Modifying user name:	malab
#	Modification time:	Tue Apr 02 20:41:12 2019

@<TRIPOS>MOLECULE
PISM00363
   56    58     1     1     0
SMALL
GAST_HUCK


@<TRIPOS>ATOM
      1 N1          6.5046   -0.9989   -7.3214 N.2       1 <1>        -0.1730 
      2 C2          7.0952   -1.2556   -8.4272 C.2       1 <1>         0.0653 
      3 N3          6.1683   -0.6619   -9.3444 N.2       1 <1>        -0.2827 
      4 C4          5.1993   -0.1553   -8.7295 C.2       1 <1>         0.1489 
      5 N5          5.3230   -0.3231   -7.4412 N.pl3     1 <1>        -0.1236 
      6 C6          4.5226    0.0668   -6.4765 C.2       1 <1>         0.1347 
      7 C7          4.9873   -0.3308   -5.0792 C.3       1 <1>         0.1322 
      8 O8          6.3987   -0.1013   -4.9062 O.3       1 <1>        -0.3716 
      9 N9         -1.1266    1.8517   -2.0999 N.2       1 <1>        -0.0916 
     10 N10        -1.7943    2.5319   -1.1536 N.2       1 <1>        -0.2262 
     11 C11         3.3867    0.7555   -6.6941 C.2       1 <1>        -0.0370 
     12 C12         2.9023    2.2349   -4.6944 C.ar      1 <1>        -0.0693 
     13 C13         2.0658    2.6515   -3.6546 C.ar      1 <1>        -0.0312 
     14 C14         0.7545    2.1672   -3.5625 C.ar      1 <1>         0.1107 
     15 C15         0.3147    1.2242   -4.4976 C.ar      1 <1>        -0.0312 
     16 C16         1.1602    0.7837   -5.5197 C.ar      1 <1>        -0.0693 
     17 N17        -0.0996    2.5788   -2.5924 N.pl3     1 <1>        -0.1418 
     18 C18         2.4683    1.2678   -5.6061 C.ar      1 <1>        -0.0552 
     19 C19         4.5550   -1.7749   -4.6455 C.3       1 <1>         0.0043 
     20 C20         5.0775   -2.8800   -5.6118 C.3       1 <1>        -0.0552 
     21 C21         5.1096   -2.0650   -3.2177 C.3       1 <1>        -0.0552 
     22 C22         3.0003   -1.8683   -4.5994 C.3       1 <1>        -0.0552 
     23 C23        -1.0865    3.7861   -1.1092 C.2       1 <1>         0.0385 
     24 C24        -0.0894    3.7433   -1.9995 C.2       1 <1>         0.0826 
     25 C25        -1.4898    4.8995   -0.1762 C.3       1 <1>        -0.0183 
     26 H1          8.0337   -1.7754   -8.6151 H         1 <1>         0.0879 
     27 H2          4.4156    0.3347   -9.3030 H         1 <1>         0.1387 
     28 H3          4.5566    0.3441   -4.3298 H         1 <1>         0.0846 
     29 H4          6.9274   -0.5996   -5.5218 H         1 <1>         0.2141 
     30 H5          3.0186    1.0104   -7.6836 H         1 <1>         0.0306 
     31 H6          3.8935    2.6672   -4.7945 H         1 <1>         0.0534 
     32 H7          2.4565    3.3467   -2.9207 H         1 <1>         0.0577 
     33 H8         -0.6948    0.8312   -4.4334 H         1 <1>         0.0577 
     34 H9          0.7983    0.0634   -6.2468 H         1 <1>         0.0534 
     35 H10         4.7387   -3.8721   -5.2762 H         1 <1>         0.0238 
     36 H11         6.1763   -2.9013   -5.6412 H         1 <1>         0.0238 
     37 H12         4.6954   -2.7273   -6.6320 H         1 <1>         0.0238 
     38 H13         4.7997   -3.0631   -2.8717 H         1 <1>         0.0238 
     39 H14         4.7379   -1.3231   -2.4942 H         1 <1>         0.0238 
     40 H15         6.2097   -2.0303   -3.2127 H         1 <1>         0.0238 
     41 H16         2.5751   -1.7241   -5.6032 H         1 <1>         0.0238 
     42 H17         2.5789   -1.1083   -3.9237 H         1 <1>         0.0238 
     43 H18         2.6784   -2.8568   -4.2375 H         1 <1>         0.0238 
     44 H19         0.5998    4.5641   -2.1849 H         1 <1>         0.0901 
     45 H20        -1.4548    4.4979    0.8486 H         1 <1>         0.0382 
     46 C46        -0.6009    6.1687   -0.2678 C.3       1 <1>        -0.0463 
     47 H21        -2.5340    5.1621   -0.4079 H         1 <1>         0.0382 
     48 H22        -0.6431    6.5706   -1.2936 H         1 <1>         0.0282 
     49 H23         0.4428    5.8999   -0.0352 H         1 <1>         0.0282 
     50 C50        -1.0757    7.2647    0.7250 C.3       1 <1>        -0.0546 
     51 H24        -2.1185    7.5428    0.4977 H         1 <1>         0.0264 
     52 C52        -0.1834    8.5304    0.6358 C.3       1 <1>        -0.0652 
     53 H26        -1.0405    6.8718    1.7550 H         1 <1>         0.0264 
     54 H25         0.8612    8.2827    0.8812 H         1 <1>         0.0230 
     55 H27        -0.5376    9.2949    1.3454 H         1 <1>         0.0230 
     56 H28        -0.2168    8.9539   -0.3801 H         1 <1>         0.0230 
@<TRIPOS>BOND
     1    2    1 2    
     2    2    3 1    
     3    3    4 2    
     4    4    5 1    
     5    1    5 1    
     6    5    6 1    
     7    6    7 1    
     8    7    8 1    
     9   17    9 1    
    10    9   10 2    
    11   10   23 1    
    12    6   11 2    
    13   18   12 ar   
    14   12   13 ar   
    15   13   14 ar   
    16   15   14 ar   
    17   16   15 ar   
    18   18   16 ar   
    19   11   18 1    
    20   14   17 1    
    21    7   19 1    
    22   19   20 1    
    23   19   21 1    
    24   19   22 1    
    25   24   23 2    
    26   17   24 1    
    27   23   25 1    
    28    2   26 1    
    29    4   27 1    
    30    7   28 1    
    31    8   29 1    
    32   11   30 1    
    33   12   31 1    
    34   13   32 1    
    35   15   33 1    
    36   16   34 1    
    37   20   35 1    
    38   20   36 1    
    39   20   37 1    
    40   21   38 1    
    41   21   39 1    
    42   21   40 1    
    43   22   41 1    
    44   22   42 1    
    45   22   43 1    
    46   24   44 1    
    47   25   45 1    
    48   25   46 1    
    49   25   47 1    
    50   46   48 1    
    51   46   49 1    
    52   46   50 1    
    53   50   51 1    
    54   50   52 1    
    55   50   53 1    
    56   52   54 1    
    57   52   55 1    
    58   52   56 1    
@<TRIPOS>SUBSTRUCTURE
     1 ****        2 TEMP              0 ****  ****    0 ROOT 
@<TRIPOS>NORMAL
@<TRIPOS>FF_PBC
FORCE_FIELD_SETUP_FEATURE Force Field Setup information
v1.0  0 0.000000 0.000000 0.000000 0.000000 0.000000 0.000000 NONE 0 0 0 0 1 0 0 0 0 0 0 0 0
