#	Name:			PISM01052.1
#	Creating user name:	malab
#	Creation time:		Thu Jul 04 18:27:40 2019

#	Modifying user name:	malab
#	Modification time:	Thu Jul 04 18:32:11 2019

@<TRIPOS>MOLECULE
PISM01052.1
   48    49     1     1     0
SMALL
GAST_HUCK


@<TRIPOS>ATOM
      1 C1         -0.2957    9.5796   37.1734 C.3       1 <1>        -0.1047 
      2 C2         -0.9726   10.5865   38.1515 C.3       1 <1>        -0.1069 
      3 C3         -2.4713   10.7683   37.8271 C.3       1 <1>        -0.0400 
      4 C4         -2.5892   11.3499   36.3998 C.3       1 <1>         0.0358 
      5 C5         -1.7267   10.6341   35.3841 C.2       1 <1>         0.0186 
      6 C6         -0.7013    9.8362   35.7309 C.2       1 <1>        -0.0707 
      7 C7          1.2473    9.7101   37.3519 C.3       1 <1>        -0.1237 
      8 C8         -0.7068    8.1123   37.5013 C.3       1 <1>        -0.1237 
      9 H9         -3.0060    9.8092   37.8957 H         1 <1>         0.0307 
     10 C10         0.0722    9.1478   34.6778 C.2       1 <1>        -0.0859 
     11 C11        -0.4679    8.1569   33.9564 C.2       1 <1>        -0.0784 
     12 C12         0.2247    7.4019   32.8843 C.2       1 <1>        -0.0298 
     13 C13        -2.1032   10.8917   33.9386 C.3       1 <1>         0.0262 
     14 H14        -2.9924   10.2932   33.6904 H         1 <1>         0.0691 
     15 C15        -0.4781    6.5958   32.0731 C.2       1 <1>         0.0747 
     16 C16         1.7233    7.5452   32.7250 C.3       1 <1>        -0.0414 
     17 O17        -1.8069    6.4861   32.2308 O.3       1 <1>        -0.2702 
     18 C18        -2.4559    5.6074   31.2942 C.3       1 <1>         0.2396 
     19 O19        -3.8535    5.5823   31.6470 O.3       1 <1>        -0.2302 
     20 C20        -4.4904    6.1137   30.6115 C.2       1 <1>         0.2496 
     21 O21        -5.7001    6.2635   30.6059 O.2       1 <1>        -0.3691 
     22 C22        -3.6471    6.4948   29.4850 C.2       1 <1>         0.0293 
     23 C23        -2.4198    6.1811   29.8950 C.2       1 <1>        -0.0006 
     24 C24        -4.0626    7.1014   28.1727 C.3       1 <1>        -0.0323 
     25 H1         -0.4883   11.5732   38.0652 H         1 <1>         0.0053 
     26 H2         -0.8557   10.2475   39.1938 H         1 <1>         0.0053 
     27 H3         -2.9353   11.4595   38.5513 H         1 <1>         0.0307 
     28 H4         -2.2723   12.4051   36.4097 H         1 <1>         0.0726 
     29 H5         -3.6484   11.3117   36.0974 H         1 <1>         0.0726 
     30 H6          1.5893   10.6977   37.0056 H         1 <1>         0.0013 
     31 H7          1.7943    8.9392   36.7887 H         1 <1>         0.0013 
     32 H8          1.5191    9.5999   38.4132 H         1 <1>         0.0013 
     33 H10        -0.4980    7.8766   38.5559 H         1 <1>         0.0013 
     34 H11        -0.1396    7.4037   36.8781 H         1 <1>         0.0013 
     35 H12        -1.7736    7.9321   37.3078 H         1 <1>         0.0013 
     36 H13         1.0949    9.4825   34.5158 H         1 <1>         0.0445 
     37 H15        -1.5006    7.8981   34.1946 H         1 <1>         0.0547 
     38 H16        -1.3085   10.6479   33.2193 H         1 <1>         0.0691 
     39 H17        -2.3455   11.9560   33.8001 H         1 <1>         0.0691 
     40 H18         0.0545    6.0435   31.2964 H         1 <1>         0.1069 
     41 H19         2.1610    6.7992   32.0446 H         1 <1>         0.0329 
     42 H20         2.2110    7.4255   33.7044 H         1 <1>         0.0329 
     43 H21         1.9525    8.5460   32.3295 H         1 <1>         0.0329 
     44 H22        -2.0615    4.5780   31.3379 H         1 <1>         0.1215 
     45 H23        -1.5210    6.3271   29.2976 H         1 <1>         0.0706 
     46 H24        -3.4528    7.9924   27.9615 H         1 <1>         0.0347 
     47 H25        -5.1226    7.3950   28.2065 H         1 <1>         0.0347 
     48 H26        -3.9208    6.3668   27.3662 H         1 <1>         0.0347 
@<TRIPOS>BOND
     1    2    1 1    
     2    2    3 1    
     3    3    4 1    
     4    4    5 1    
     5    5    6 2    
     6    1    6 1    
     7    1    7 1    
     8    1    8 1    
     9    3    9 1    
    10    6   10 1    
    11   10   11 2    
    12   11   12 1    
    13    5   13 1    
    14   13   14 1    
    15   12   15 2    
    16   12   16 1    
    17   15   17 1    
    18   17   18 1    
    19   18   19 1    
    20   19   20 1    
    21   20   21 2    
    22   20   22 1    
    23   22   23 2    
    24   18   23 1    
    25   22   24 1    
    26    2   25 1    
    27    2   26 1    
    28    3   27 1    
    29    4   28 1    
    30    4   29 1    
    31    7   30 1    
    32    7   31 1    
    33    7   32 1    
    34    8   33 1    
    35    8   34 1    
    36    8   35 1    
    37   10   36 1    
    38   11   37 1    
    39   13   38 1    
    40   13   39 1    
    41   15   40 1    
    42   16   41 1    
    43   16   42 1    
    44   16   43 1    
    45   18   44 1    
    46   23   45 1    
    47   24   46 1    
    48   24   47 1    
    49   24   48 1    
@<TRIPOS>SUBSTRUCTURE
     1 ****        2 TEMP              0 ****  ****    0 ROOT 
@<TRIPOS>NORMAL
@<TRIPOS>FF_PBC
FORCE_FIELD_SETUP_FEATURE Force Field Setup information
v1.0  0 0.000000 0.000000 0.000000 0.000000 0.000000 0.000000 NONE 0 0 0 0 1 0 0 0 0 0 0 0 0
