#	Name:			PISM00802
#	Creating user name:	baoopengkun
#	Creation time:		Tue Jan 08 16:31:35 2019

#	Modifying user name:	baoopengkun
#	Modification time:	Tue Jan 08 16:35:17 2019

@<TRIPOS>MOLECULE
PISM00802
   48    51     1     1     0
SMALL
GAST_HUCK


@<TRIPOS>ATOM
      1 C1         18.2734    0.2898  -48.1034 C.3       1 <1>        -0.0247 
      2 C2         19.1337   -0.0883  -49.3483 C.3       1 <1>        -0.0049 
      3 C3         20.5793    0.4720  -49.2625 C.3       1 <1>         0.1284 
      4 C4         20.5873    1.7614  -48.4818 C.2       1 <1>         0.1372 
      5 C5         19.3346    2.5907  -48.5302 C.3       1 <1>         0.0436 
      6 C6         18.0289    1.8435  -48.1269 C.3       1 <1>        -0.0099 
      7 O7         21.5709    2.1066  -47.8463 O.2       1 <1>        -0.3885 
      8 C8         18.5915    2.9952  -47.2417 C.3       1 <1>        -0.0064 
      9 O9         21.0818    0.6727  -50.5975 O.3       1 <1>        -0.3724 
     10 C10        18.9041   -0.3211  -46.8167 C.3       1 <1>        -0.0592 
     11 C11        16.8671   -0.3700  -48.2646 C.3       1 <1>        -0.0592 
     12 H12        17.2202    2.1723  -48.8017 H         1 <1>         0.0339 
     13 H13        19.2380    3.2881  -49.3779 H         1 <1>         0.0538 
     14 C14        19.3017    2.8255  -45.8719 C.3       1 <1>         0.0205 
     15 C15        18.3017    2.7540  -44.6727 C.3       1 <1>         0.0824 
     16 O16        18.9381    3.3435  -43.5189 O.3       1 <1>        -0.2822 
     17 C17        19.8266    4.1875  -44.0185 C.2       1 <1>         0.2353 
     18 C18        20.0453    4.0636  -45.4516 C.2       1 <1>         0.0529 
     19 O19        20.4252    4.9931  -43.3266 O.2       1 <1>        -0.3780 
     20 C20        20.7634    4.8859  -46.2231 C.2       1 <1>         0.0787 
     21 O21        20.8423    4.6540  -47.5386 O.3       1 <1>        -0.2722 
     22 C22        21.8182    5.4522  -48.2246 C.3       1 <1>         0.2383 
     23 C23        23.2097    5.1600  -47.7181 C.2       1 <1>        -0.0010 
     24 C24        23.7823    6.2782  -47.2765 C.2       1 <1>         0.0293 
     25 C25        22.7615    7.2991  -47.4955 C.2       1 <1>         0.2495 
     26 O26        21.6195    6.8650  -48.0169 O.3       1 <1>        -0.2305 
     27 O27        22.9364    8.4724  -47.2160 O.2       1 <1>        -0.3691 
     28 C28        25.1596    6.4512  -46.6971 C.3       1 <1>        -0.0323 
     29 H1         18.6525    0.3459  -50.2401 H         1 <1>         0.0321 
     30 H2         19.1730   -1.1802  -49.4942 H         1 <1>         0.0321 
     31 H3         21.2230   -0.2487  -48.7274 H         1 <1>         0.0829 
     32 H4         18.0186    3.9315  -47.3479 H         1 <1>         0.0350 
     33 H5         21.9674    1.0242  -50.6019 H         1 <1>         0.2134 
     34 H6         19.9526   -0.0452  -46.6637 H         1 <1>         0.0235 
     35 H7         18.3205   -0.0305  -45.9346 H         1 <1>         0.0235 
     36 H8         18.8892   -1.4202  -46.8767 H         1 <1>         0.0235 
     37 H9         16.9357   -1.4687  -48.2889 H         1 <1>         0.0235 
     38 H10        16.3759   -0.0524  -49.1976 H         1 <1>         0.0235 
     39 H11        16.2188   -0.0841  -47.4215 H         1 <1>         0.0235 
     40 H14        20.0340    2.0147  -45.8139 H         1 <1>         0.0419 
     41 H15        17.9470    1.7416  -44.4349 H         1 <1>         0.0627 
     42 H16        17.4213    3.3791  -44.8986 H         1 <1>         0.0627 
     43 H17        21.2579    5.7222  -45.7241 H         1 <1>         0.1070 
     44 H18        21.7634    5.2246  -49.3010 H         1 <1>         0.1210 
     45 H19        23.6668    4.1709  -47.7182 H         1 <1>         0.0706 
     46 H20        25.1570    6.1262  -45.6461 H         1 <1>         0.0347 
     47 H21        25.4612    7.5084  -46.7445 H         1 <1>         0.0347 
     48 H22        25.8874    5.8477  -47.2601 H         1 <1>         0.0347 
@<TRIPOS>BOND
     1    2    1 1    
     2    2    3 1    
     3    3    4 1    
     4    4    5 1    
     5    5    6 1    
     6    1    6 1    
     7    4    7 2    
     8    6    8 1    
     9    5    8 1    
    10    3    9 1    
    11    1   10 1    
    12    1   11 1    
    13    6   12 1    
    14    5   13 1    
    15    8   14 1    
    16   14   15 1    
    17   15   16 1    
    18   16   17 1    
    19   17   18 1    
    20   14   18 1    
    21   17   19 2    
    22   18   20 2    
    23   20   21 1    
    24   21   22 1    
    25   22   23 1    
    26   23   24 2    
    27   24   25 1    
    28   25   26 1    
    29   22   26 1    
    30   25   27 2    
    31   24   28 1    
    32    2   29 1    
    33    2   30 1    
    34    3   31 1    
    35    8   32 1    
    36    9   33 1    
    37   10   34 1    
    38   10   35 1    
    39   10   36 1    
    40   11   37 1    
    41   11   38 1    
    42   11   39 1    
    43   14   40 1    
    44   15   41 1    
    45   15   42 1    
    46   20   43 1    
    47   22   44 1    
    48   23   45 1    
    49   28   46 1    
    50   28   47 1    
    51   28   48 1    
@<TRIPOS>SUBSTRUCTURE
     1 ****        2 TEMP              0 ****  ****    0 ROOT 
@<TRIPOS>NORMAL
@<TRIPOS>FF_PBC
FORCE_FIELD_SETUP_FEATURE Force Field Setup information
v1.0  0 0.000000 0.000000 0.000000 0.000000 0.000000 0.000000 NONE 0 0 0 0 1 0 0 0 0 0 0 0 0
