#	Name:			PISM01031
#	Creating user name:	14062
#	Creation time:		Sat Oct 19 23:50:29 2019

#	Modifying user name:	14062
#	Modification time:	Sun Oct 20 00:16:30 2019

@<TRIPOS>MOLECULE
PISM01031
   32    33     3     1     0
SMALL
GAST_HUCK


@<TRIPOS>ATOM
      1 O1          3.7673    5.2493   -2.5242 O.2       3 NO         -0.1261 
      2 N2          3.9571    0.2523   -2.6453 N.pl3     1 BENZYL     -0.2993 
      3 C2          4.8366    0.4409   -3.6624 C.ar      1 BENZYL     -0.0068 
      4 C3          4.6797   -0.2561   -4.8710 C.ar      1 BENZYL     -0.0328 
      5 C4          5.5616   -0.0053   -5.9305 C.ar      1 BENZYL     -0.1455 
      6 C5          6.6017    0.9176   -5.7904 C.ar      1 BENZYL     -0.1535 
      7 C6          6.7785    1.5848   -4.5766 C.ar      1 BENZYL     -0.1612 
      8 C7          5.9077    1.3326   -3.5134 C.ar      1 BENZYL     -0.1209 
      9 O9          2.7731   -1.5709   -4.0082 O.3       1 BENZYL     -0.3191 
     10 C10         3.5656   -1.2711   -5.0423 C.2       1 BENZYL      0.1609 
     11 O11         3.3782   -1.8266   -6.1149 O.2       1 BENZYL     -0.4382 
     12 N12         3.3197    4.8499   -1.4723 N.pl3     3 NO          0.0590 
     13 H1          3.4607   -0.6501   -2.5731 H         1 BENZYL      0.2031 
     14 C2          3.7075    1.2105   -1.7209 C.ar      2 BENZYL      0.0431 
     15 C3          3.3997    2.5246   -2.1036 C.ar      2 BENZYL     -0.0035 
     16 C4          3.3855    3.5380   -1.1318 C.ar      2 BENZYL      0.1073 
     17 C5          3.4396    3.1886    0.2232 C.ar      2 BENZYL     -0.0594 
     18 C6          3.5941    1.8554    0.6096 C.ar      2 BENZYL     -0.0928 
     19 C7          3.7544    0.8701   -0.3661 C.ar      2 BENZYL     -0.0622 
     20 H2          5.4430   -0.5288   -6.8736 H         1 BENZYL      0.0111 
     21 H3          7.2715    1.1142   -6.6217 H         1 BENZYL      0.0297 
     22 H4          7.5907    2.2959   -4.4597 H         1 BENZYL     -0.0094 
     23 H5          6.0781    1.8382   -2.5685 H         1 BENZYL      0.0143 
     24 H6          2.1191   -2.2146   -4.2569 H         1 BENZYL      0.2451 
     25 C25         3.0521    2.8284   -3.5708 C.3       2 BENZYL     -0.0391 
     26 H7          3.3674    3.9520    0.9908 H         2 BENZYL      0.0377 
     27 H8          3.5971    1.5869    1.6617 H         2 BENZYL      0.0489 
     28 H9          3.9212   -0.1610   -0.0714 H         2 BENZYL      0.0390 
     29 H10         3.9446    3.1874   -4.1045 H         2 BENZYL      0.0335 
     30 H11         2.2624    3.5922   -3.6272 H         2 BENZYL      0.0335 
     31 H12         2.6685    1.9327   -4.0820 H         2 BENZYL      0.0335 
     32 O32         2.7849    5.7880   -0.5786 O.3       3 NO         -0.0297 
@<TRIPOS>BOND
     1    2    3 1    
     2    3    4 ar   
     3    3    8 ar   
     4    8    7 ar   
     5    7    6 ar   
     6    5    6 ar   
     7    4    5 ar   
     8   12    1 2    
     9    2   13 1    
    10   10    9 1    
    11    4   10 1    
    12   10   11 2    
    13    5   20 1    
    14   14    2 1    
    15   14   15 ar   
    16   14   19 ar   
    17   19   18 ar   
    18   18   17 ar   
    19   17   16 ar   
    20   16   15 ar   
    21   16   12 1    
    22    6   21 1    
    23    7   22 1    
    24    8   23 1    
    25    9   24 1    
    26   17   26 1    
    27   15   25 1    
    28   18   27 1    
    29   19   28 1    
    30   25   29 1    
    31   25   30 1    
    32   25   31 1    
    33   12   32 1    
@<TRIPOS>SUBSTRUCTURE
     1 BENZYL      2 PERM              0 ****  ****    1  
     2 BENZYL     14 PERM              0 ****  ****    2 ROOT 
     3 NO         12 PERM              0 ****  ****    1  
@<TRIPOS>NORMAL
@<TRIPOS>FF_PBC
FORCE_FIELD_SETUP_FEATURE Force Field Setup information
v1.0  0 0.000000 0.000000 0.000000 0.000000 0.000000 0.000000 NONE 0 0 0 0 1 0 0 0 0 0 0 0 0
