#	Name:			PISM00565
#	Creating user name:	baoopengkun
#	Creation time:		Wed Dec 19 10:55:03 2018

#	Modifying user name:	baoopengkun
#	Modification time:	Wed Dec 19 11:01:32 2018

@<TRIPOS>MOLECULE
PISM00565
   24    24     1     1     0
SMALL
USER_CHARGES


@<TRIPOS>ATOM
      1 C1         22.2600   28.8244  -42.8698 C.3       1 <1>         0.0000 
      2 C2         21.5677   28.4534  -41.5538 C.ar      1 <1>         0.0000 
      3 C3         20.7759   27.3033  -41.4780 C.ar      1 <1>         0.0000 
      4 C4         20.1466   26.9712  -40.2739 C.ar      1 <1>         0.0000 
      5 C5         20.3273   27.8072  -39.1674 C.ar      1 <1>         0.0000 
      6 C6         21.1294   28.9486  -39.2900 C.ar      1 <1>         0.0000 
      7 N7         21.7219   29.2374  -40.4665 N.ar      1 <1>         0.0000 
      8 O8         21.3417   29.8164  -38.2147 O.3       1 <1>         0.0000 
      9 C9         19.2855   25.7302  -40.1689 C.2       1 <1>         0.0000 
     10 O10        19.1410   25.0126  -41.1478 O.2       1 <1>         0.0000 
     11 O11        18.6940   25.4354  -39.0054 O.3       1 <1>         0.0000 
     12 H1         20.6548   26.6756  -42.3545 H         1 <1>         0.0000 
     13 H2         19.8489   27.5715  -38.2228 H         1 <1>         0.0000 
     14 H3         20.9024   29.5590  -37.4119 H         1 <1>         0.0000 
     15 H4         18.1732   24.6393  -39.0320 H         1 <1>         0.0000 
     16 C16        23.1383   30.0949  -42.7208 C.3       1 <1>         0.0000 
     17 C17        23.8318   30.4600  -44.0590 C.3       1 <1>         0.0000 
     18 H5         21.4838   28.9941  -43.6328 H         1 <1>         0.0000 
     19 H6         22.8863   27.9748  -43.1857 H         1 <1>         0.0000 
     20 H7         23.9076   29.9194  -41.9501 H         1 <1>         0.0000 
     21 H8         22.5087   30.9409  -42.3979 H         1 <1>         0.0000 
     22 H9         24.4793   29.6347  -44.3938 H         1 <1>         0.0000 
     23 H10        24.4512   31.3618  -43.9308 H         1 <1>         0.0000 
     24 H11        23.0801   30.6589  -44.8388 H         1 <1>         0.0000 
@<TRIPOS>BOND
     1    2    1 1    
     2    2    3 ar   
     3    3    4 ar   
     4    4    5 ar   
     5    5    6 ar   
     6    6    7 ar   
     7    2    7 ar   
     8    6    8 1    
     9    4    9 1    
    10    9   10 2    
    11    9   11 1    
    12    3   12 1    
    13    5   13 1    
    14    8   14 1    
    15   11   15 1    
    16    1   16 1    
    17   16   17 1    
    18    1   18 1    
    19    1   19 1    
    20   16   20 1    
    21   16   21 1    
    22   17   22 1    
    23   17   23 1    
    24   17   24 1    
@<TRIPOS>SUBSTRUCTURE
     1 ****        2 TEMP              0 ****  ****    0 ROOT 
@<TRIPOS>NORMAL
@<TRIPOS>FF_PBC
FORCE_FIELD_SETUP_FEATURE Force Field Setup information
v1.0  0 0.000000 0.000000 0.000000 0.000000 0.000000 0.000000 NONE 0 0 0 0 0 0 0 0 0 0 0 0 0
