#	Name:			PISM00885.1
#	Creating user name:	baoopengkun
#	Creation time:		Fri Dec 14 09:30:18 2018

#	Modifying user name:	baoopengkun
#	Modification time:	Fri Dec 14 09:39:52 2018

@<TRIPOS>MOLECULE
PISM00885.1
   29    31     1     1     0
SMALL
GAST_HUCK


@<TRIPOS>ATOM
      1 C1          2.7028    5.0614    4.1154 C.ar      1 <1>        -0.0320 
      2 C2          2.4322    6.1962    3.3480 C.ar      1 <1>         0.1284 
      3 C3          2.5051    6.1252    1.9555 C.ar      1 <1>        -0.0320 
      4 C4          2.8471    4.9202    1.3347 C.ar      1 <1>        -0.0613 
      5 C5          3.1178    3.7772    2.0962 C.ar      1 <1>        -0.0231 
      6 C6          3.0435    3.8563    3.4929 C.ar      1 <1>        -0.0613 
      7 C7          3.4814    2.4967    1.3725 C.2       1 <1>         0.0677 
      8 N8          3.5460    2.4040   -0.0666 N.2       1 <1>        -0.2173 
      9 N9          3.8996    1.1245   -0.2725 N.2       1 <1>        -0.0862 
     10 N10         4.0288    0.4844    0.9079 N.pl3     1 <1>        -0.1240 
     11 C11         3.7885    1.3035    1.8933 C.2       1 <1>         0.0921 
     12 C12         4.4244   -0.9068    1.0380 C.3       1 <1>         0.2441 
     13 C13         3.1821   -1.7614    0.9819 C.2       1 <1>         0.0017 
     14 C14         3.0132   -2.4139    2.1305 C.2       1 <1>         0.0295 
     15 C15         4.1588   -1.9978    2.9318 C.2       1 <1>         0.2498 
     16 O16         5.0001   -1.1614    2.3362 O.3       1 <1>        -0.2284 
     17 O17         4.3391   -2.3878    4.0721 O.2       1 <1>        -0.3691 
     18 C18         1.9154   -3.3687    2.5127 C.3       1 <1>        -0.0323 
     19 H1          2.6466    5.1223    5.1973 H         1 <1>         0.0595 
     20 H2          2.2954    7.0085    1.3612 H         1 <1>         0.0595 
     21 F21         2.1059    7.3414    3.9420 F         1 <1>        -0.1864 
     22 H3          2.9013    4.8780    0.2514 H         1 <1>         0.0574 
     23 H4          3.2467    2.9916    4.1128 H         1 <1>         0.0574 
     24 H5          3.8350    1.0411    2.9484 H         1 <1>         0.1069 
     25 H6          5.1387   -1.1767    0.2436 H         1 <1>         0.1243 
     26 H7          2.5176   -1.8249    0.1209 H         1 <1>         0.0709 
     27 H8          1.5339   -3.8944    1.6244 H         1 <1>         0.0347 
     28 H9          1.0926   -2.8094    2.9821 H         1 <1>         0.0347 
     29 H10         2.2980   -4.1117    3.2286 H         1 <1>         0.0347 
@<TRIPOS>BOND
     1    2    1 ar   
     2    2    3 ar   
     3    3    4 ar   
     4    4    5 ar   
     5    5    6 ar   
     6    1    6 ar   
     7    5    7 1    
     8    7    8 1    
     9    8    9 2    
    10    9   10 1    
    11   10   11 1    
    12    7   11 2    
    13   10   12 1    
    14   12   13 1    
    15   13   14 2    
    16   14   15 1    
    17   15   16 1    
    18   12   16 1    
    19   15   17 2    
    20   14   18 1    
    21    1   19 1    
    22    3   20 1    
    23    2   21 1    
    24    4   22 1    
    25    6   23 1    
    26   11   24 1    
    27   12   25 1    
    28   13   26 1    
    29   18   27 1    
    30   18   28 1    
    31   18   29 1    
@<TRIPOS>SUBSTRUCTURE
     1 ****        2 TEMP              0 ****  ****    0 ROOT 
@<TRIPOS>NORMAL
@<TRIPOS>FF_PBC
FORCE_FIELD_SETUP_FEATURE Force Field Setup information
v1.0  0 0.000000 0.000000 0.000000 0.000000 0.000000 0.000000 NONE 0 0 0 0 1 0 0 0 0 0 0 0 0
