#	Name:			PISM01073
#	Creating user name:	14062
#	Creation time:		Sat Apr 06 20:47:08 2019

#	Modifying user name:	14062
#	Modification time:	Sat Apr 06 20:48:31 2019

@<TRIPOS>MOLECULE
PISM01073
  184   189     1     1     0
SMALL
GAST_HUCK


@<TRIPOS>ATOM
      1 S         -10.0258   -0.4717   10.2615 S.3       1 <1>        -0.0483 
      2 C          -8.3127   -0.1517    9.9354 C.2       1 <1>         0.0780 
      3 N          -7.5618   -1.0609    9.4629 N.2       1 <1>        -0.3352 
      4 C          -8.3228   -2.2784    9.2939 C.3       1 <1>         0.0771 
      5 H          -8.1511   -2.9143   10.1779 H         1 <1>         0.0615 
      6 C          -9.8205   -1.9021    9.1651 C.3       1 <1>         0.0410 
      7 H         -10.0449   -1.5620    8.1425 H         1 <1>         0.0453 
      8 H         -10.4934   -2.7308    9.4325 H         1 <1>         0.0453 
      9 C          -7.8417   -3.0266    8.0526 C.ar      1 <1>         0.1067 
     10 S          -7.5184   -2.2845    6.5049 S.3       1 <1>         0.0219 
     11 C          -7.0795   -3.7718    5.9012 C.ar      1 <1>         0.0387 
     12 H          -6.7550   -3.9227    4.8779 H         1 <1>         0.0868 
     13 C          -7.1666   -4.8043    6.8338 C.ar      1 <1>         0.0804 
     14 N          -7.6093   -4.3563    8.0288 N.ar      1 <1>        -0.3136 
     15 C          -6.8111   -6.2494    6.5641 C.2       1 <1>         0.1934 
     16 O          -6.4560   -6.5557    5.4377 O.2       1 <1>        -0.3947 
     17 N          -6.8885   -7.1564    7.5606 N.am      1 <1>        -0.2893 
     18 H          -7.1948   -6.8660    8.4690 H         1 <1>         0.1838 
     19 C          -6.5430   -8.5529    7.3026 C.3       1 <1>         0.0300 
     20 H          -7.2820   -8.9806    6.6055 H         1 <1>         0.0519 
     21 H          -5.5504   -8.5998    6.8247 H         1 <1>         0.0519 
     22 C          -6.5109   -9.3960    8.6056 C.3       1 <1>        -0.0328 
     23 H          -5.7780   -8.9510    9.2984 H         1 <1>         0.0285 
     24 H          -7.5049   -9.3624    9.0810 H         1 <1>         0.0285 
     25 C          -6.1233  -10.8737    8.3204 C.3       1 <1>        -0.0503 
     26 H          -6.8554  -11.3223    7.6287 H         1 <1>         0.0266 
     27 H          -5.1322  -10.9113    7.8387 H         1 <1>         0.0266 
     28 C          -6.0774  -11.7202    9.6188 C.3       1 <1>        -0.0339 
     29 H          -5.3262  -11.2637   10.2858 H         1 <1>         0.0275 
     30 H          -7.0828  -11.6896   10.0723 H         1 <1>         0.0275 
     31 N          -5.7020  -13.0622    9.2103 N.2       1 <1>        -0.3777 
     32 C          -5.5932  -13.9429   10.1363 C.2       1 <1>         0.1742 
     33 N          -5.2510  -15.1532    9.7865 N.pl3     1 <1>        -0.2877 
     34 H          -5.0829  -15.3517    8.7898 H         1 <1>         0.1892 
     35 H          -5.1421  -15.9172   10.4664 H         1 <1>         0.1892 
     36 N          -5.7975  -13.7342   11.4173 N.pl3     1 <1>        -0.2877 
     37 H          -6.0703  -12.8207   11.7913 H         1 <1>         0.1892 
     38 H          -5.6885  -14.4970   12.0990 H         1 <1>         0.1892 
     39 C          -7.7018    1.1992   10.1926 C.3       1 <1>         0.0425 
     40 H          -6.6415    1.0564   10.4553 H         1 <1>         0.0576 
     41 H          -8.2066    1.6881   11.0401 H         1 <1>         0.0576 
     42 C          -7.8064    2.0859    8.9252 C.3       1 <1>         0.0498 
     43 H          -8.8668    2.3036    8.7148 H         1 <1>         0.0556 
     44 H          -7.3981    1.5178    8.0719 H         1 <1>         0.0556 
     45 N          -7.0590    3.3358    9.0569 N.am      1 <1>        -0.2818 
     46 H          -6.6117    3.5519    9.9258 H         1 <1>         0.1854 
     47 C          -6.9636    4.1616    7.9893 C.2       1 <1>         0.2044 
     48 O          -7.5677    3.9331    6.9535 O.2       1 <1>        -0.3944 
     49 C          -6.0837    5.3936    8.0532 C.3       1 <1>         0.1563 
     50 H          -6.3266    5.9301    8.9846 H         1 <1>         0.0826 
     51 N          -6.3351    6.2346    6.8806 N.am      1 <1>        -0.2630 
     52 H          -6.6615    5.7631    6.0597 H         1 <1>         0.1884 
     53 C          -6.0876    7.5637    6.9181 C.2       1 <1>         0.1837 
     54 O          -5.7493    8.0981    7.9614 O.2       1 <1>        -0.3965 
     55 C          -6.2328    8.3966    5.6558 C.3       1 <1>         0.0740 
     56 H          -7.2903    8.3156    5.3648 H         1 <1>         0.0562 
     57 C          -5.8824    9.8924    5.9469 C.3       1 <1>         0.0969 
     58 H          -6.4320   10.1950    6.8565 H         1 <1>         0.0644 
     59 O          -4.4616    9.9503    6.1894 O.3       1 <1>        -0.3869 
     60 H          -4.1604   10.7656    6.5751 H         1 <1>         0.2101 
     61 C          -6.3267   10.8823    4.8226 C.3       1 <1>         0.0675 
     62 H          -5.8743   10.6049    3.8580 H         1 <1>         0.0580 
     63 N          -7.7867   10.9148    4.7289 N.am      1 <1>        -0.2794 
     64 H          -8.2902   11.5258    5.3444 H         1 <1>         0.1855 
     65 C          -8.4544   10.1536    3.8343 C.2       1 <1>         0.2069 
     66 O          -7.8971    9.3687    3.0851 O.2       1 <1>        -0.3942 
     67 C          -9.9580   10.2835    3.7387 C.3       1 <1>         0.1694 
     68 H         -10.3500   10.3172    4.7625 H         1 <1>         0.0853 
     69 N         -10.5399    9.1159    3.0805 N.am      1 <1>        -0.2590 
     70 H          -9.9872    8.6082    2.4143 H         1 <1>         0.1882 
     71 C         -11.8153    8.7620    3.3507 C.2       1 <1>         0.2230 
     72 O         -12.4656    9.3619    4.1910 O.2       1 <1>        -0.3790 
     73 C         -12.4485    7.6290    2.5723 C.ar      1 <1>         0.1170 
     74 N         -11.8305    7.2249    1.4425 N.ar      1 <1>        -0.2730 
     75 C         -12.4157    6.3433    0.6092 C.ar      1 <1>         0.1023 
     76 N         -13.5980    5.7911    0.9394 N.ar      1 <1>        -0.2547 
     77 C         -14.2815    6.2103    2.0202 C.ar      1 <1>         0.1275 
     78 N         -15.5765    5.8303    2.1148 N.pl3     1 <1>        -0.3176 
     79 H         -15.9584    5.1686    1.4231 H         1 <1>         0.1792 
     80 H         -16.2120    6.2578    2.8013 H         1 <1>         0.1792 
     81 C         -13.6435    7.0163    2.9722 C.ar      1 <1>         0.0372 
     82 C         -14.2146    7.2044    4.3860 C.3       1 <1>        -0.0229 
     83 H         -14.8391    8.1097    4.4125 H         1 <1>         0.0392 
     84 H         -13.4023    7.2990    5.1219 H         1 <1>         0.0392 
     85 H         -14.8167    6.3366    4.6918 H         1 <1>         0.0392 
     86 C         -11.7504    5.9761   -0.7184 C.3       1 <1>         0.0874 
     87 H         -11.2570    6.8761   -1.1222 H         1 <1>         0.0708 
     88 N         -12.7725    5.4868   -1.6746 N.3       1 <1>        -0.2928 
     89 H         -12.3002    5.0703   -2.5602 H         1 <1>         0.1256 
     90 C         -13.8424    6.4408   -2.0567 C.3       1 <1>         0.0312 
     91 H         -14.0757    7.1455   -1.2429 H         1 <1>         0.0467 
     92 H         -13.5392    7.0328   -2.9364 H         1 <1>         0.0467 
     93 C         -15.1317    5.6280   -2.3356 C.3       1 <1>         0.1082 
     94 H         -14.9347    4.9185   -3.1570 H         1 <1>         0.0714 
     95 N         -15.4872    4.8784   -1.1079 N.3       1 <1>        -0.3097 
     96 H         -14.6528    4.2723   -0.7774 H         1 <1>         0.1211 
     97 H         -16.3539    4.2542   -1.2786 H         1 <1>         0.1211 
     98 C         -16.2546    6.5491   -2.7669 C.2       1 <1>         0.1918 
     99 O         -17.1943    6.7504   -2.0164 O.2       1 <1>        -0.3955 
    100 N         -16.2086    7.1375   -3.9790 N.am      1 <1>        -0.2996 
    101 H         -16.9605    7.7436   -4.2403 H         1 <1>         0.1815 
    102 H         -15.4563    6.9821   -4.6179 H         1 <1>         0.1815 
    103 C         -10.6917    4.8806   -0.4313 C.3       1 <1>         0.0667 
    104 H          -9.9692    5.2515    0.3124 H         1 <1>         0.0546 
    105 H         -11.2001    3.9937   -0.0236 H         1 <1>         0.0546 
    106 C          -9.9443    4.4708   -1.6753 C.2       1 <1>         0.1775 
    107 O         -10.2987    4.9101   -2.7563 O.2       1 <1>        -0.3970 
    108 N          -8.9047    3.6206   -1.5739 N.am      1 <1>        -0.3007 
    109 H          -8.4210    3.3572   -2.4088 H         1 <1>         0.1814 
    110 H          -8.6113    3.2502   -0.6932 H         1 <1>         0.1814 
    111 C         -10.2522   11.6063    2.9713 C.3       1 <1>         0.1599 
    112 H          -9.5951   11.6135    2.0878 H         1 <1>         0.0844 
    113 O          -9.8772   12.8050    3.6909 O.3       1 <1>        -0.3247 
    114 C         -10.5022   13.0026    4.9752 C.3       1 <1>         0.1914 
    115 H         -11.5602   12.7026    4.9677 H         1 <1>         0.0940 
    116 O          -9.7277   12.2524    5.9306 O.3       1 <1>        -0.3403 
    117 C         -10.2001   12.3565    7.2914 C.3       1 <1>         0.1130 
    118 H          -9.4530   11.8113    7.8931 H         1 <1>         0.0647 
    119 C         -10.2154   13.8355    7.7763 C.3       1 <1>         0.1119 
    120 H          -9.1735   14.1935    7.8513 H         1 <1>         0.0647 
    121 O         -10.8703   13.9661    9.0527 O.3       1 <1>        -0.3865 
    122 H         -10.5027   13.3975    9.7226 H         1 <1>         0.2100 
    123 C         -10.9388   14.7510    6.7555 C.3       1 <1>         0.1144 
    124 H         -12.0188   14.5282    6.7831 H         1 <1>         0.0648 
    125 O         -10.7315   16.1324    7.1139 O.3       1 <1>        -0.3864 
    126 H         -11.1964   16.7279    6.5319 H         1 <1>         0.2100 
    127 C         -10.3950   14.5067    5.3262 C.3       1 <1>         0.1408 
    128 H          -9.3281   14.7849    5.3331 H         1 <1>         0.0675 
    129 O         -11.2150   15.2987    4.4357 O.3       1 <1>        -0.3377 
    130 C         -10.5004   16.2112    3.5745 C.3       1 <1>         0.1889 
    131 H          -9.8763   16.8639    4.2046 H         1 <1>         0.0938 
    132 O         -11.5507   16.9777    2.9574 O.3       1 <1>        -0.3405 
    133 C         -11.0946   18.0176    2.0661 C.3       1 <1>         0.1133 
    134 H         -12.0101   18.3776    1.5693 H         1 <1>         0.0647 
    135 C         -10.1421   17.4664    0.9603 C.3       1 <1>         0.1164 
    136 H          -9.6795   18.3058    0.4121 H         1 <1>         0.0650 
    137 O         -10.8365   16.6496   -0.0057 O.3       1 <1>        -0.3861 
    138 H         -11.5440   17.0972   -0.4593 H         1 <1>         0.2100 
    139 C          -9.0102   16.6114    1.5844 C.3       1 <1>         0.1468 
    140 H          -8.4524   16.1496    0.7507 H         1 <1>         0.0702 
    141 O          -8.1458   17.4974    2.3311 O.3       1 <1>        -0.2553 
    142 C          -7.0066   16.9426    2.7638 C.2       1 <1>         0.3173 
    143 O          -6.6690   15.8013    2.5008 O.2       1 <1>        -0.3777 
    144 N          -6.2654   17.7718    3.5167 N.am      1 <1>        -0.2763 
    145 H          -5.3954   17.4415    3.8795 H         1 <1>         0.1831 
    146 H          -6.5721   18.7025    3.7121 H         1 <1>         0.1831 
    147 C          -9.6525   15.5114    2.4761 C.3       1 <1>         0.1387 
    148 H          -8.8613   14.9148    2.9527 H         1 <1>         0.0675 
    149 O         -10.4930   14.6268    1.7055 O.3       1 <1>        -0.3837 
    150 H         -10.0387   14.1883    0.9945 H         1 <1>         0.2101 
    151 C         -10.5434   19.2667    2.8168 C.3       1 <1>         0.0730 
    152 H          -9.6464   19.0369    3.4086 H         1 <1>         0.0584 
    153 H         -10.2752   20.0432    2.0801 H         1 <1>         0.0584 
    154 O         -11.5660   19.7828    3.6912 O.3       1 <1>        -0.3924 
    155 H         -11.3024   20.5611    4.1738 H         1 <1>         0.2095 
    156 C         -11.5407   11.6108    7.5386 C.3       1 <1>         0.0730 
    157 H         -12.3984   12.1750    7.1424 H         1 <1>         0.0584 
    158 H         -11.4998   10.6331    7.0293 H         1 <1>         0.0584 
    159 O         -11.7018   11.4024    8.9554 O.3       1 <1>        -0.3924 
    160 H         -12.5050   10.9408    9.1800 H         1 <1>         0.2095 
    161 C         -11.6409   11.6597    2.3075 C.ar      1 <1>         0.0918 
    162 N         -12.0778   10.7741    1.3838 N.pl3     1 <1>        -0.2622 
    163 H         -11.5133   10.0305    0.9509 H         1 <1>         0.2433 
    164 C         -13.3461   11.0562    1.0405 C.ar      1 <1>         0.0826 
    165 H         -13.9741   10.5081    0.3449 H         1 <1>         0.1012 
    166 N         -13.6954   12.1627    1.7268 N.ar      1 <1>        -0.3461 
    167 C         -12.6645   12.5907    2.4843 C.ar      1 <1>        -0.0203 
    168 H         -12.6563   13.4923    3.0837 H         1 <1>         0.0315 
    169 C          -5.8577   12.3416    5.0881 C.3       1 <1>        -0.0394 
    170 H          -4.7643   12.4373    5.0054 H         1 <1>         0.0253 
    171 H          -6.3103   13.0149    4.3423 H         1 <1>         0.0253 
    172 H          -6.1694   12.6748    6.0900 H         1 <1>         0.0253 
    173 C          -5.3275    7.8081    4.5313 C.3       1 <1>        -0.0428 
    174 H          -5.4012    8.3836    3.6000 H         1 <1>         0.0257 
    175 H          -5.6054    6.7756    4.2785 H         1 <1>         0.0257 
    176 H          -4.2758    7.8061    4.8556 H         1 <1>         0.0257 
    177 C          -4.6043    4.9061    8.0693 C.3       1 <1>         0.0924 
    178 H          -4.4574    4.2489    8.9451 H         1 <1>         0.0639 
    179 O          -4.3607    4.1536    6.8655 O.3       1 <1>        -0.3874 
    180 H          -3.4828    3.7883    6.8158 H         1 <1>         0.2101 
    181 C          -3.5850    6.0715    8.1754 C.3       1 <1>        -0.0346 
    182 H          -2.5655    5.6711    8.2889 H         1 <1>         0.0257 
    183 H          -3.8076    6.7034    9.0491 H         1 <1>         0.0257 
    184 H          -3.6067    6.6886    7.2653 H         1 <1>         0.0257 
@<TRIPOS>BOND
     1    1    2 1    
     2    2    3 2    
     3    3    4 1    
     4    4    5 1    
     5    4    6 1    
     6    6    7 1    
     7    6    8 1    
     8    6    1 1    
     9    4    9 1    
    10    9   10 ar   
    11   10   11 ar   
    12   11   12 1    
    13   11   13 ar   
    14   13   14 ar   
    15   14    9 ar   
    16   13   15 1    
    17   15   16 2    
    18   15   17 am   
    19   17   18 1    
    20   17   19 1    
    21   19   20 1    
    22   19   21 1    
    23   19   22 1    
    24   22   23 1    
    25   22   24 1    
    26   22   25 1    
    27   25   26 1    
    28   25   27 1    
    29   25   28 1    
    30   28   29 1    
    31   28   30 1    
    32   28   31 1    
    33   31   32 2    
    34   32   33 1    
    35   33   34 1    
    36   33   35 1    
    37   32   36 1    
    38   36   37 1    
    39   36   38 1    
    40    2   39 1    
    41   39   40 1    
    42   39   41 1    
    43   39   42 1    
    44   42   43 1    
    45   42   44 1    
    46   42   45 1    
    47   45   46 1    
    48   45   47 am   
    49   47   48 2    
    50   47   49 1    
    51   49   50 1    
    52   49   51 1    
    53   51   52 1    
    54   51   53 am   
    55   53   54 2    
    56   53   55 1    
    57   55   56 1    
    58   55   57 1    
    59   57   58 1    
    60   57   59 1    
    61   59   60 1    
    62   57   61 1    
    63   61   62 1    
    64   61   63 1    
    65   63   64 1    
    66   63   65 am   
    67   65   66 2    
    68   65   67 1    
    69   67   68 1    
    70   67   69 1    
    71   69   70 1    
    72   69   71 am   
    73   71   72 2    
    74   71   73 1    
    75   73   74 ar   
    76   74   75 ar   
    77   75   76 ar   
    78   76   77 ar   
    79   77   78 1    
    80   78   79 1    
    81   78   80 1    
    82   77   81 ar   
    83   81   73 ar   
    84   81   82 1    
    85   82   83 1    
    86   82   84 1    
    87   82   85 1    
    88   75   86 1    
    89   86   87 1    
    90   86   88 1    
    91   88   89 1    
    92   88   90 1    
    93   90   91 1    
    94   90   92 1    
    95   90   93 1    
    96   93   94 1    
    97   93   95 1    
    98   95   96 1    
    99   95   97 1    
   100   93   98 1    
   101   98   99 2    
   102   98  100 am   
   103  100  101 1    
   104  100  102 1    
   105   86  103 1    
   106  103  104 1    
   107  103  105 1    
   108  103  106 1    
   109  106  107 2    
   110  106  108 am   
   111  108  109 1    
   112  108  110 1    
   113   67  111 1    
   114  111  112 1    
   115  111  113 1    
   116  113  114 1    
   117  114  115 1    
   118  114  116 1    
   119  116  117 1    
   120  117  118 1    
   121  117  119 1    
   122  119  120 1    
   123  119  121 1    
   124  121  122 1    
   125  119  123 1    
   126  123  124 1    
   127  123  125 1    
   128  125  126 1    
   129  123  127 1    
   130  127  128 1    
   131  127  114 1    
   132  127  129 1    
   133  129  130 1    
   134  130  131 1    
   135  130  132 1    
   136  132  133 1    
   137  133  134 1    
   138  133  135 1    
   139  135  136 1    
   140  135  137 1    
   141  137  138 1    
   142  135  139 1    
   143  139  140 1    
   144  139  141 1    
   145  141  142 1    
   146  142  143 2    
   147  142  144 am   
   148  144  145 1    
   149  144  146 1    
   150  139  147 1    
   151  147  148 1    
   152  147  130 1    
   153  147  149 1    
   154  149  150 1    
   155  133  151 1    
   156  151  152 1    
   157  151  153 1    
   158  151  154 1    
   159  154  155 1    
   160  117  156 1    
   161  156  157 1    
   162  156  158 1    
   163  156  159 1    
   164  159  160 1    
   165  111  161 1    
   166  161  162 ar   
   167  162  163 1    
   168  162  164 ar   
   169  164  165 1    
   170  164  166 ar   
   171  166  167 ar   
   172  167  168 1    
   173  167  161 ar   
   174   61  169 1    
   175  169  170 1    
   176  169  171 1    
   177  169  172 1    
   178   55  173 1    
   179  173  174 1    
   180  173  175 1    
   181  173  176 1    
   182   49  177 1    
   183  177  178 1    
   184  177  179 1    
   185  179  180 1    
   186  177  181 1    
   187  181  182 1    
   188  181  183 1    
   189  181  184 1    
@<TRIPOS>SUBSTRUCTURE
     1 ****        1 TEMP              0 ****  ****    0 ROOT 
@<TRIPOS>NORMAL
@<TRIPOS>FF_PBC
FORCE_FIELD_SETUP_FEATURE Force Field Setup information
v1.0  0 0.000000 0.000000 0.000000 0.000000 0.000000 0.000000 NONE 0 0 0 0 1 0 0 0 0 0 0 0 0
@<TRIPOS>UNITY_ATOM_ATTR
4 1
AtomExpr s=I
49 1
AtomExpr s=N
55 1
AtomExpr s=I
57 1
AtomExpr s=I
61 1
AtomExpr s=I
67 1
AtomExpr s=N
86 1
AtomExpr s=N
93 1
AtomExpr s=I
111 1
AtomExpr s=N
114 1
AtomExpr s=I
117 1
AtomExpr s=I
119 1
AtomExpr s=N
123 1
AtomExpr s=I
127 1
AtomExpr s=N
130 1
AtomExpr s=N
133 1
AtomExpr s=N
135 1
AtomExpr s=N
139 1
AtomExpr s=I
147 1
AtomExpr s=N
177 1
AtomExpr s=I
