#	Name:			PISM00811.1
#	Creating user name:	baoopengkun
#	Creation time:		Fri Nov 30 16:58:04 2018

#	Modifying user name:	baoopengkun
#	Modification time:	Fri Nov 30 17:03:04 2018

@<TRIPOS>MOLECULE
PISM00811.1
   34    35     1     2     0
SMALL
GAST_HUCK


@<TRIPOS>ATOM
      1 C1         -0.9206    6.6169   -3.5530 C.ar      1 <1>        -0.0647 
      2 C2          0.0194    6.5440   -4.5852 C.ar      1 <1>        -0.0694 
      3 C3          0.7991    5.3957   -4.7414 C.ar      1 <1>        -0.0690 
      4 C4          0.6053    4.3092   -3.8851 C.ar      1 <1>        -0.0694 
      5 C5         -0.3538    4.3783   -2.8703 C.ar      1 <1>        -0.0647 
      6 C6         -1.0807    5.5563   -2.6517 C.ar      1 <1>        -0.0287 
      7 C7         -2.0392    5.7114   -1.4853 C.2       1 <1>         0.0835 
      8 C8         -3.2067    6.5997   -1.6537 C.2       1 <1>         0.2398 
      9 O9         -3.2445    7.8420   -1.1412 O.3       1 <1>        -0.2865 
     10 C10        -2.0598    8.2793   -0.4441 C.3       1 <1>         0.0638 
     11 O11        -4.1712    6.1894   -2.2752 O.2       1 <1>        -0.3770 
     12 C12        -1.8886    5.0887   -0.3076 C.2       1 <1>         0.1066 
     13 O13        -0.8135    4.3221   -0.0748 O.3       1 <1>        -0.2489 
     14 C14        -0.7640    3.7362    1.2393 C.3       1 <1>         0.2459 
     15 C15        -0.5543    4.7936    2.3010 C.2       1 <1>         0.0005 
     16 C16         0.6301    4.6388    2.8893 C.2       1 <1>         0.0294 
     17 C17         1.1931    3.4730    2.2196 C.2       1 <1>         0.2497 
     18 O18         0.4235    2.9211    1.2904 O.3       1 <1>        -0.2292 
     19 C19         1.2526    5.4703    3.9775 C.3       1 <1>        -0.0323 
     20 O20         2.2928    3.0267    2.4968 O.2       1 <1>        -0.3691 
     21 H1         -1.5247    7.5136   -3.4632 H         1 <1>         0.0554 
     22 H2          0.1447    7.3804   -5.2661 H         1 <1>         0.0598 
     23 H3          1.5485    5.3465   -5.5255 H         1 <1>         0.0557 
     24 H4          1.1986    3.4086   -4.0114 H         1 <1>         0.0598 
     25 H5         -0.5297    3.4945   -2.2683 H         1 <1>         0.0554 
     26 H6         -2.2334    9.3233   -0.1440 H         1 <1>         0.0574 
     27 H7         -1.1634    8.2561   -1.0830 H         1 <1>         0.0574 
     28 H8         -1.8771    7.6948    0.4697 H         1 <1>         0.0574 
     29 H9         -2.6702    5.2445    0.4409 H         1 <1>         0.1337 
     30 H10        -1.6380    3.0967    1.4512 H         1 <1>         0.1227 
     31 H11        -1.2636    5.5800    2.5557 H         1 <1>         0.0707 
     32 H12         0.9123    6.5145    3.9085 H         1 <1>         0.0347 
     33 H13         2.3488    5.4468    3.8852 H         1 <1>         0.0347 
     34 H14         0.9670    5.0612    4.9578 H         1 <1>         0.0347 
@<TRIPOS>BOND
     1    2    1 ar   
     2    2    3 ar   
     3    3    4 ar   
     4    4    5 ar   
     5    5    6 ar   
     6    1    6 ar   
     7    6    7 1    
     8    7    8 1    
     9    8    9 1    
    10    9   10 1    
    11    8   11 2    
    12    7   12 2    
    13   12   13 1    
    14   13   14 1    
    15   14   15 1    
    16   15   16 2    
    17   16   17 1    
    18   17   18 1    
    19   14   18 1    
    20   16   19 1    
    21   17   20 2    
    22    1   21 1    
    23    2   22 1    
    24    3   23 1    
    25    4   24 1    
    26    5   25 1    
    27   10   26 1    
    28   10   27 1    
    29   10   28 1    
    30   12   29 1    
    31   14   30 1    
    32   15   31 1    
    33   19   32 1    
    34   19   33 1    
    35   19   34 1    
@<TRIPOS>SUBSTRUCTURE
     1 ****        2 TEMP              0 ****  ****    0 ROOT 
@<TRIPOS>NORMAL
@<TRIPOS>FF_PBC
FORCE_FIELD_SETUP_FEATURE Force Field Setup information
v1.0  0 0.000000 0.000000 0.000000 0.000000 0.000000 0.000000 NONE 0 0 0 0 1 0 0 0 0 0 0 0 0
@<TRIPOS>RENDERING_ATTRS
ANTIALIASED_LINES 
*
