#	Name:			PISM00648
#	Creating user name:	baoopengkun
#	Creation time:		Sat Jan 12 19:29:01 2019

#	Modifying user name:	baoopengkun
#	Modification time:	Sat Jan 12 19:33:07 2019

@<TRIPOS>MOLECULE
PISM00648
   27    27     1     1     0
SMALL
GAST_HUCK


@<TRIPOS>ATOM
      1 Cl1        -9.0684    3.4613    2.3321 Cl        1 <1>        -0.0722 
      2 C2         -7.6077    2.6360    1.8275 C.ar      1 <1>         0.0547 
      3 C3         -7.4428    1.2707    2.0744 C.ar      1 <1>         0.0116 
      4 N4         -6.3164    0.6373    1.6838 N.ar      1 <1>        -0.2802 
      5 C5         -5.3473    1.2760    0.9953 C.ar      1 <1>         0.1351 
      6 C6         -5.4438    2.6533    0.7644 C.ar      1 <1>        -0.0110 
      7 C7         -6.5926    3.3367    1.1726 C.ar      1 <1>        -0.0388 
      8 N8         -4.2964    0.5380    0.5665 N.pl3     1 <1>        -0.2237 
      9 C9         -3.7573    0.7083   -0.6124 C.2       1 <1>         0.2042 
     10 O10        -4.1612    1.5347   -1.4138 O.2       1 <1>        -0.3781 
     11 C11        -1.2831    0.3412   -0.3344 C.3       1 <1>        -0.0171 
     12 C12         1.2113    0.0198   -0.1385 C.2       1 <1>         0.2313 
     13 O13         2.1358    0.4322   -0.8205 O.2       1 <1>        -0.3706 
     14 O14         1.2603    0.0114    1.1931 O.3       1 <1>        -0.2927 
     15 C15        -2.5837   -0.1505   -1.0242 C.3       1 <1>         0.0454 
     16 C16        -0.0558   -0.5119   -0.7544 C.3       1 <1>         0.0507 
     17 H1         -8.2219    0.7126    2.5817 H         1 <1>         0.0792 
     18 H2         -4.6370    3.1972    0.2841 H         1 <1>         0.0624 
     19 H3         -6.6961    4.3998    0.9840 H         1 <1>         0.0708 
     20 H4         -3.9482   -0.2053    1.1877 H         1 <1>         0.2154 
     21 H5         -1.4040    0.2953    0.7607 H         1 <1>         0.0316 
     22 H6         -1.1047    1.3927   -0.6159 H         1 <1>         0.0316 
     23 H7          2.0904    0.3572    1.5032 H         1 <1>         0.2539 
     24 H8         -2.4641   -0.0951   -2.1187 H         1 <1>         0.0513 
     25 H9         -2.7870   -1.2014   -0.7642 H         1 <1>         0.0513 
     26 H10         0.0544   -0.5036   -1.8506 H         1 <1>         0.0520 
     27 H11        -0.1870   -1.5550   -0.4278 H         1 <1>         0.0520 
@<TRIPOS>BOND
     1    2    1 1    
     2    3    2 ar   
     3    4    3 ar   
     4    5    4 ar   
     5    5    6 ar   
     6    6    7 ar   
     7    7    2 ar   
     8    8    5 1    
     9    9    8 1    
    10    9   10 2    
    11   11   15 1    
    12   16   11 1    
    13   12   13 2    
    14   12   14 1    
    15   15    9 1    
    16   12   16 1    
    17    3   17 1    
    18    6   18 1    
    19    7   19 1    
    20    8   20 1    
    21   11   21 1    
    22   11   22 1    
    23   14   23 1    
    24   15   24 1    
    25   15   25 1    
    26   16   26 1    
    27   16   27 1    
@<TRIPOS>SUBSTRUCTURE
     1 ****       12 TEMP              0 ****  ****    0 ROOT 
@<TRIPOS>NORMAL
@<TRIPOS>FF_PBC
FORCE_FIELD_SETUP_FEATURE Force Field Setup information
v1.0  0 0.000000 0.000000 0.000000 0.000000 0.000000 0.000000 NONE 0 0 0 0 1 0 0 0 0 0 0 0 0
