#	Name:			PISM00905
#	Creating user name:	baoopengkun
#	Creation time:		Fri Dec 14 10:31:16 2018

#	Modifying user name:	baoopengkun
#	Modification time:	Fri Dec 14 10:33:18 2018

@<TRIPOS>MOLECULE
PISM00905
   27    29     1     1     0
SMALL
GAST_HUCK


@<TRIPOS>ATOM
      1 C1         17.2623   12.1343   -8.2243 C.ar      1 <1>        -0.0371 
      2 C2         16.2476   13.0761   -8.4396 C.ar      1 <1>        -0.0523 
      3 C3         16.3438   14.0215   -9.4728 C.ar      1 <1>        -0.0523 
      4 C4         17.4576   14.0540  -10.3222 C.ar      1 <1>        -0.0371 
      5 C5         18.4603   13.1113  -10.0977 C.ar      1 <1>         0.0735 
      6 C6         18.3652   12.1770   -9.0764 C.ar      1 <1>         0.0735 
      7 C7         19.6257   11.3527   -9.1608 C.2       1 <1>         0.2446 
      8 N8         20.3924   11.8004  -10.1744 N.am      1 <1>        -0.1399 
      9 C9         19.7766   12.8332  -10.7803 C.2       1 <1>         0.2446 
     10 O10        19.8863   10.4291   -8.4090 O.2       1 <1>        -0.3667 
     11 O11        20.2007   13.4623  -11.7342 O.2       1 <1>        -0.3667 
     12 C12        21.6631   11.2270  -10.5810 C.3       1 <1>         0.2216 
     13 O13        21.4094    9.9605  -11.2208 O.3       1 <1>        -0.2348 
     14 C14        21.9886    9.0540  -10.4428 C.2       1 <1>         0.2491 
     15 C15        22.6808    9.5816   -9.2722 C.2       1 <1>         0.0288 
     16 C16        22.4973   10.8972   -9.3661 C.2       1 <1>        -0.0058 
     17 C17        23.4352    8.8176   -8.2192 C.3       1 <1>        -0.0323 
     18 O18        21.9487    7.8632  -10.7009 O.2       1 <1>        -0.3691 
     19 H1         17.2006   11.3981   -7.4294 H         1 <1>         0.0682 
     20 H2         15.3730   13.0733   -7.7958 H         1 <1>         0.0662 
     21 H3         15.5425   14.7402   -9.6173 H         1 <1>         0.0662 
     22 H4         17.5443   14.7796  -11.1245 H         1 <1>         0.0682 
     23 H5         22.2183   11.8887  -11.2668 H         1 <1>         0.1153 
     24 H6         22.8825   11.6341   -8.6627 H         1 <1>         0.0702 
     25 H7         23.7853    7.8578   -8.6276 H         1 <1>         0.0347 
     26 H8         22.7677    8.6226   -7.3667 H         1 <1>         0.0347 
     27 H9         24.3044    9.3966   -7.8730 H         1 <1>         0.0347 
@<TRIPOS>BOND
     1    2    1 ar   
     2    2    3 ar   
     3    3    4 ar   
     4    4    5 ar   
     5    5    6 ar   
     6    1    6 ar   
     7    6    7 1    
     8    7    8 am   
     9    8    9 am   
    10    5    9 1    
    11    7   10 2    
    12    9   11 2    
    13    8   12 1    
    14   12   13 1    
    15   13   14 1    
    16   14   15 1    
    17   15   16 2    
    18   12   16 1    
    19   15   17 1    
    20   14   18 2    
    21    1   19 1    
    22    2   20 1    
    23    3   21 1    
    24    4   22 1    
    25   12   23 1    
    26   16   24 1    
    27   17   25 1    
    28   17   26 1    
    29   17   27 1    
@<TRIPOS>SUBSTRUCTURE
     1 ****        2 TEMP              0 ****  ****    0 ROOT 
@<TRIPOS>NORMAL
@<TRIPOS>FF_PBC
FORCE_FIELD_SETUP_FEATURE Force Field Setup information
v1.0  0 0.000000 0.000000 0.000000 0.000000 0.000000 0.000000 NONE 0 0 0 0 1 0 0 0 0 0 0 0 0
