#	Name:			PISM00614
#	Creating user name:	baoopengkun
#	Creation time:		Fri Jan 25 19:52:29 2019

#	Modifying user name:	baoopengkun
#	Modification time:	Fri Jan 25 19:53:17 2019

@<TRIPOS>MOLECULE
PISM00614
   48    51     1     1     0
SMALL
GAST_HUCK


@<TRIPOS>ATOM
      1 Cl1         9.5993   -6.7559   -0.1608 Cl        1 <1>        -0.0420 
      2 C2          7.9889   -7.3954   -0.4292 C.ar      1 <1>         0.0714 
      3 C3          7.2423   -6.9825   -1.5353 C.ar      1 <1>        -0.0180 
      4 C4          5.9562   -7.4875   -1.7467 C.ar      1 <1>        -0.0348 
      5 C5          5.3500   -8.3122   -0.7886 C.ar      1 <1>         0.0068 
      6 C6          6.1206   -8.7591    0.2928 C.ar      1 <1>        -0.0348 
      7 C7          7.4377   -8.3203    0.4626 C.ar      1 <1>        -0.0180 
      8 C8          3.8638   -8.6971   -0.9119 C.3       1 <1>         0.1921 
      9 O9          3.6812   -9.7344   -1.8913 O.3       1 <1>        -0.3814 
     10 C10         2.5566  -10.5114   -1.4736 C.3       1 <1>         0.0672 
     11 C11         2.9176  -10.6208    0.0221 C.3       1 <1>         0.1000 
     12 O12         3.3701   -9.2870    0.3072 O.3       1 <1>        -0.3758 
     13 C13         2.9824   -7.4445   -1.1994 C.3       1 <1>         0.1073 
     14 N14         2.8886   -7.1006   -2.6113 N.pl3     1 <1>        -0.1814 
     15 N15         2.6292   -7.9543   -3.6424 N.2       1 <1>        -0.1908 
     16 C16         2.6035   -7.3760   -4.7838 C.2       1 <1>         0.0618 
     17 N17         2.8839   -6.0195   -4.4029 N.2       1 <1>        -0.2870 
     18 C18         3.0322   -5.9309   -3.1607 C.2       1 <1>         0.1270 
     19 C19         4.0457  -11.6675    0.2275 C.3       1 <1>         0.0952 
     20 C20         5.4948  -12.5670    2.0362 C.ar      1 <1>         0.1202 
     21 C21         6.0851  -13.5118    1.1841 C.ar      1 <1>        -0.0415 
     22 C22         7.0887  -14.3633    1.6573 C.ar      1 <1>        -0.0819 
     23 C23         7.5280  -14.2708    2.9796 C.ar      1 <1>        -0.0819 
     24 C24         6.9541  -13.3218    3.8299 C.ar      1 <1>        -0.0411 
     25 C25         5.9322  -12.4872    3.3642 C.ar      1 <1>         0.1290 
     26 O26         5.3272  -11.5793    4.2330 O.3       1 <1>        -0.2300 
     27 C27         6.1174  -10.4252    4.5542 C.3       1 <1>         0.5442 
     28 F28         6.4976   -9.7550    3.4308 F         1 <1>        -0.1403 
     29 F29         5.3482   -9.6032    5.3190 F         1 <1>        -0.1403 
     30 F30         7.2239  -10.7741    5.2637 F         1 <1>        -0.1403 
     31 O31         4.4737  -11.7002    1.6026 O.3       1 <1>        -0.3192 
     32 H1          7.6686   -6.2634   -2.2305 H         1 <1>         0.0703 
     33 H2          5.4270   -7.2346   -2.6605 H         1 <1>         0.0849 
     34 H3          5.7031   -9.4478    1.0167 H         1 <1>         0.0849 
     35 H4          8.0353   -8.6897    1.2889 H         1 <1>         0.0703 
     36 H5          2.5008  -11.4856   -1.9864 H         1 <1>         0.0576 
     37 H6          1.6110   -9.9653   -1.6293 H         1 <1>         0.0576 
     38 H7          2.0614  -10.8869    0.6634 H         1 <1>         0.0635 
     39 H8          3.3629   -6.5962   -0.6089 H         1 <1>         0.0595 
     40 H9          1.9476   -7.6313   -0.8780 H         1 <1>         0.0595 
     41 H10         2.4200   -7.8023   -5.7702 H         1 <1>         0.0863 
     42 H11         3.2494   -4.9967   -2.6448 H         1 <1>         0.1361 
     43 H12         4.8937  -11.4180   -0.4286 H         1 <1>         0.0635 
     44 H13         3.6385  -12.6523   -0.0471 H         1 <1>         0.0635 
     45 H14         5.7870  -13.6154    0.1462 H         1 <1>         0.0509 
     46 H15         7.5289  -15.0991    0.9908 H         1 <1>         0.0495 
     47 H16         8.3072  -14.9338    3.3411 H         1 <1>         0.0495 
     48 H17         7.3009  -13.2418    4.8539 H         1 <1>         0.0509 
@<TRIPOS>BOND
     1    2    1 1    
     2    3    2 ar   
     3    4    3 ar   
     4    5    4 ar   
     5    5    6 ar   
     6    6    7 ar   
     7    7    2 ar   
     8    8    5 1    
     9    8    9 1    
    10   10    9 1    
    11   11   10 1    
    12   11   12 1    
    13   12    8 1    
    14    8   13 1    
    15   13   14 1    
    16   14   15 1    
    17   15   16 2    
    18   17   16 1    
    19   18   17 2    
    20   14   18 1    
    21   19   11 1    
    22   31   19 1    
    23   20   21 ar   
    24   21   22 ar   
    25   23   22 ar   
    26   24   23 ar   
    27   25   24 ar   
    28   25   20 ar   
    29   26   25 1    
    30   27   26 1    
    31   27   28 1    
    32   27   29 1    
    33   27   30 1    
    34   20   31 1    
    35    3   32 1    
    36    4   33 1    
    37    6   34 1    
    38    7   35 1    
    39   10   36 1    
    40   10   37 1    
    41   11   38 1    
    42   13   39 1    
    43   13   40 1    
    44   16   41 1    
    45   18   42 1    
    46   19   43 1    
    47   19   44 1    
    48   21   45 1    
    49   22   46 1    
    50   23   47 1    
    51   24   48 1    
@<TRIPOS>SUBSTRUCTURE
     1 ****       27 TEMP              0 ****  ****    0 ROOT 
@<TRIPOS>NORMAL
@<TRIPOS>FF_PBC
FORCE_FIELD_SETUP_FEATURE Force Field Setup information
v1.0  0 0.000000 0.000000 0.000000 0.000000 0.000000 0.000000 NONE 0 0 0 0 1 0 0 0 0 0 0 0 0
