#	Name:			PISM00515
#	Creating user name:	14062
#	Creation time:		Sun Oct 20 21:30:09 2019

#	Modifying user name:	14062
#	Modification time:	Sun Oct 20 21:30:49 2019

@<TRIPOS>MOLECULE
PISM00515
   25    27     1     2     0
SMALL
GAST_HUCK


@<TRIPOS>ATOM
      1 C          -0.1354   -2.3105   -0.0991 C.3       1 <1>         0.0170 
      2 C          -1.4763   -1.5828    0.0301 C.ar      1 <1>        -0.0205 
      3 C          -2.7367   -2.1812    0.0634 C.ar      1 <1>        -0.0553 
      4 C          -3.8605   -1.3576    0.1846 C.ar      1 <1>        -0.0647 
      5 C          -3.7103    0.0254    0.3483 C.ar      1 <1>        -0.0543 
      6 C          -2.4412    0.6169    0.3954 C.ar      1 <1>         0.0097 
      7 C          -1.3399   -0.1981    0.1085 C.ar      1 <1>        -0.0039 
      8 C           0.0808    0.1126   -0.1598 C.ar      1 <1>        -0.0143 
      9 C           0.7363    1.3280   -0.3701 C.ar      1 <1>        -0.0592 
     10 C           2.1278    1.3184   -0.5205 C.ar      1 <1>        -0.0577 
     11 C           2.8402    0.1124   -0.5150 C.ar      1 <1>         0.0027 
     12 C           2.1670   -1.1061   -0.3754 C.ar      1 <1>        -0.0469 
     13 C           0.7801   -1.0904   -0.2169 C.ar      1 <1>        -0.0209 
     14 C          -2.3273    2.0785    0.7715 C.2       1 <1>         0.0609 
     15 O          -1.3088    2.4828    1.3925 O.co2     1 <1>        -0.5612 
     16 O          -3.2752    2.8564    0.4775 O.co2     1 <1>        -0.5612 
     17 I           4.8830    0.1300   -0.7167 I         1 <1>        -0.0518 
     18 H1         -0.0971   -2.9339   -1.0045 H         1 <1>         0.0622 
     19 H2          0.0908   -2.9007    0.8011 H         1 <1>         0.0622 
     20 H3         -2.8383   -3.2589   -0.0075 H         1 <1>         0.0586 
     21 H4         -4.8545   -1.7930    0.1568 H         1 <1>         0.0601 
     22 H5         -4.5922    0.6496    0.4514 H         1 <1>         0.0598 
     23 H6          0.1878    2.2602   -0.4285 H         1 <1>         0.0605 
     24 H7          2.6584    2.2567   -0.6443 H         1 <1>         0.0588 
     25 H8          2.7072   -2.0461   -0.3904 H         1 <1>         0.0593 
@<TRIPOS>BOND
     1    2    1 1    
     2    2    3 ar   
     3    4    3 ar   
     4    5    4 ar   
     5    6    5 ar   
     6    6    7 ar   
     7    7    2 ar   
     8    7    8 1    
     9    8    9 ar   
    10    9   10 ar   
    11   10   11 ar   
    12   12   11 ar   
    13   13   12 ar   
    14    8   13 ar   
    15   13    1 1    
    16   14   15 ar   
    17   14   16 ar   
    18    6   14 1    
    19   11   17 1    
    20    1   18 1    
    21    1   19 1    
    22    3   20 1    
    23    4   21 1    
    24    5   22 1    
    25    9   23 1    
    26   10   24 1    
    27   12   25 1    
@<TRIPOS>SUBSTRUCTURE
     1 ****        1 TEMP              0 ****  ****    0 ROOT 
@<TRIPOS>NORMAL
@<TRIPOS>FF_PBC
FORCE_FIELD_SETUP_FEATURE Force Field Setup information
v1.0  0 0.000000 0.000000 0.000000 0.000000 0.000000 0.000000 NONE 0 0 0 0 1 0 0 0 0 0 0 0 0
@<TRIPOS>RENDERING_ATTRS
ANTIALIASED_LINES 
*
