#	Name:			PISM00701
#	Creating user name:	baoopengkun
#	Creation time:		Sun Jan 20 21:20:18 2019

#	Modifying user name:	baoopengkun
#	Modification time:	Sun Jan 20 21:21:29 2019

@<TRIPOS>MOLECULE
PISM00701
   47    49     1     1     0
SMALL
GAST_HUCK


@<TRIPOS>ATOM
      1 C1          6.7641    5.7132   10.0299 C.3       1 <1>        -0.0367 
      2 C2          7.2624    4.4234    9.3669 C.ar      1 <1>        -0.0578 
      3 C3          8.5075    4.3666    8.7305 C.ar      1 <1>        -0.0705 
      4 C4          8.9447    3.1776    8.1389 C.ar      1 <1>        -0.0464 
      5 C5          8.1308    2.0391    8.1520 C.ar      1 <1>         0.0554 
      6 C6          6.8887    2.0958    8.7923 C.ar      1 <1>        -0.0464 
      7 C7          6.4579    3.2796    9.3981 C.ar      1 <1>        -0.0705 
      8 N8          8.5282    0.8806    7.5700 N.pl3     1 <1>        -0.2288 
      9 C9          8.9762    0.8402    6.3383 C.2       1 <1>         0.2859 
     10 O10         9.0136    1.8903    5.7185 O.2       1 <1>        -0.3852 
     11 N11         9.3876   -0.3112    5.7188 N.am      1 <1>        -0.2404 
     12 C12         9.8743   -0.2413    4.3267 C.3       1 <1>         0.0484 
     13 C13         9.1064   -1.1872    3.3641 C.3       1 <1>        -0.0414 
     14 C14        11.3884   -0.5853    4.3205 C.3       1 <1>        -0.0179 
     15 C15        12.3082    0.2249    3.3793 C.3       1 <1>        -0.0478 
     16 C16        12.2957    0.5251    4.8946 C.3       1 <1>        -0.0478 
     17 C17         9.3958   -1.5825    6.4546 C.3       1 <1>         0.0690 
     18 C18         7.9962   -2.0952    6.8287 C.ar      1 <1>        -0.0209 
     19 C19         6.8343   -1.5272    6.2920 C.ar      1 <1>        -0.0584 
     20 C20         5.5750   -1.9990    6.6740 C.ar      1 <1>        -0.0685 
     21 C21         5.4676   -3.0503    7.5882 C.ar      1 <1>        -0.0687 
     22 C22         6.6233   -3.6306    8.1171 C.ar      1 <1>        -0.0685 
     23 C23         7.8812   -3.1549    7.7358 C.ar      1 <1>        -0.0584 
     24 H1          7.5155    6.5158    9.9877 H         1 <1>         0.0368 
     25 H2          6.5257    5.5116   11.0851 H         1 <1>         0.0368 
     26 H3          5.8539    6.0542    9.5143 H         1 <1>         0.0368 
     27 H4          9.1444    5.2444    8.6924 H         1 <1>         0.0527 
     28 H5          9.9252    3.1421    7.6750 H         1 <1>         0.0512 
     29 H6          6.2527    1.2165    8.8162 H         1 <1>         0.0512 
     30 H7          5.4926    3.3096    9.8937 H         1 <1>         0.0527 
     31 H8          8.4370    0.0267    8.1260 H         1 <1>         0.2091 
     32 H9          9.7456    0.7590    3.8800 H         1 <1>         0.0559 
     33 H10         9.4947   -1.0729    2.3393 H         1 <1>         0.0252 
     34 H11         8.0368   -0.9289    3.3598 H         1 <1>         0.0252 
     35 H12         9.2074   -2.2447    3.6438 H         1 <1>         0.0252 
     36 H13        11.7261   -1.6086    4.5471 H         1 <1>         0.0323 
     37 H14        11.8581    0.9887    2.7266 H         1 <1>         0.0269 
     38 H15        13.2057   -0.2855    2.9963 H         1 <1>         0.0269 
     39 H16        11.8194    1.4683    5.2053 H         1 <1>         0.0269 
     40 H17        13.1787    0.2022    5.4681 H         1 <1>         0.0269 
     41 H18        10.0268   -1.4811    7.3520 H         1 <1>         0.0685 
     42 H19         9.8492   -2.3923    5.8677 H         1 <1>         0.0685 
     43 H20         6.8935   -0.7151    5.5766 H         1 <1>         0.0557 
     44 H21         4.6783   -1.5480    6.2598 H         1 <1>         0.0599 
     45 H22         4.4893   -3.4153    7.8860 H         1 <1>         0.0559 
     46 H23         6.5436   -4.4509    8.8241 H         1 <1>         0.0599 
     47 H24         8.7730   -3.6150    8.1500 H         1 <1>         0.0557 
@<TRIPOS>BOND
     1    2    1 1    
     2    2    3 ar   
     3    3    4 ar   
     4    4    5 ar   
     5    5    6 ar   
     6    6    7 ar   
     7    2    7 ar   
     8    5    8 1    
     9    8    9 1    
    10    9   10 2    
    11    9   11 am   
    12   11   12 1    
    13   12   13 1    
    14   12   14 1    
    15   14   15 1    
    16   15   16 1    
    17   14   16 1    
    18   11   17 1    
    19   17   18 1    
    20   18   19 ar   
    21   19   20 ar   
    22   20   21 ar   
    23   21   22 ar   
    24   22   23 ar   
    25   18   23 ar   
    26    1   24 1    
    27    1   25 1    
    28    1   26 1    
    29    3   27 1    
    30    4   28 1    
    31    6   29 1    
    32    7   30 1    
    33    8   31 1    
    34   12   32 1    
    35   13   33 1    
    36   13   34 1    
    37   13   35 1    
    38   14   36 1    
    39   15   37 1    
    40   15   38 1    
    41   16   39 1    
    42   16   40 1    
    43   17   41 1    
    44   17   42 1    
    45   19   43 1    
    46   20   44 1    
    47   21   45 1    
    48   22   46 1    
    49   23   47 1    
@<TRIPOS>SUBSTRUCTURE
     1 ****        2 TEMP              0 ****  ****    0 ROOT 
@<TRIPOS>NORMAL
@<TRIPOS>FF_PBC
FORCE_FIELD_SETUP_FEATURE Force Field Setup information
v1.0  0 0.000000 0.000000 0.000000 0.000000 0.000000 0.000000 NONE 0 0 0 0 1 0 0 0 0 0 0 0 0
