#	Name:			PISM00625
#	Creating user name:	baoopengkun
#	Creation time:		Mon Dec 10 11:21:52 2018

#	Modifying user name:	baoopengkun
#	Modification time:	Mon Dec 10 11:22:05 2018

@<TRIPOS>MOLECULE
PISM00625
   58    61     1     2     0
SMALL
GAST_HUCK


@<TRIPOS>ATOM
      1 C1         12.9857   -4.1371  -32.7327 C.ar      1 <1>        -0.0348 
      2 C2         12.8312   -5.0497  -31.6857 C.ar      1 <1>        -0.0180 
      3 C3         12.9722   -6.4187  -31.9272 C.ar      1 <1>         0.0714 
      4 C4         13.2928   -6.8708  -33.2103 C.ar      1 <1>        -0.0180 
      5 C5         13.4327   -5.9582  -34.2598 C.ar      1 <1>        -0.0348 
      6 C6         13.2591   -4.5900  -34.0279 C.ar      1 <1>         0.0068 
      7 C7         13.3527   -3.5814  -35.1811 C.3       1 <1>         0.1921 
      8 C8         11.9374   -3.3230  -35.7424 C.3       1 <1>         0.1073 
      9 N9         11.0026   -3.0412  -34.6613 N.pl3     1 <1>        -0.1814 
     10 N10        10.7276   -1.8211  -34.1209 N.2       1 <1>        -0.1908 
     11 C11         9.8501   -1.8693  -33.1888 C.2       1 <1>         0.0618 
     12 N12         9.5533   -3.2751  -33.1703 N.2       1 <1>        -0.2870 
     13 C13        10.2362   -3.8792  -34.0320 C.2       1 <1>         0.1270 
     14 O14        13.9889   -2.3692  -34.7566 O.3       1 <1>        -0.3814 
     15 C15        15.3797   -2.6748  -34.6549 C.3       1 <1>         0.0672 
     16 C16        15.5560   -3.5326  -35.9289 C.3       1 <1>         0.1000 
     17 O17        14.2401   -4.0356  -36.2159 O.3       1 <1>        -0.3758 
     18 C18        16.6088   -4.6541  -35.7534 C.3       1 <1>         0.0952 
     19 O19        16.2221   -5.5338  -34.6834 O.3       1 <1>        -0.3192 
     20 C20        17.2218   -6.4253  -34.2942 C.ar      1 <1>         0.1200 
     21 C21        17.4845   -7.5674  -35.0554 C.ar      1 <1>        -0.0415 
     22 C22        18.5152   -8.4339  -34.6784 C.ar      1 <1>        -0.0819 
     23 C23        19.2763   -8.1615  -33.5373 C.ar      1 <1>        -0.0819 
     24 C24        18.9981   -7.0300  -32.7644 C.ar      1 <1>        -0.0413 
     25 C25        17.9624   -6.1693  -33.1360 C.ar      1 <1>         0.1215 
     26 O26        17.6630   -5.0549  -32.3491 O.3       1 <1>        -0.3170 
     27 C27        16.5302   -5.2697  -31.4895 C.3       1 <1>         0.0750 
     28 C28        16.1639   -3.9750  -30.8079 C.2       1 <1>        -0.0798 
     29 Cl29       12.7479   -7.5679  -30.6250 Cl        1 <1>        -0.0420 
     30 H1         12.8849   -3.0730  -32.5399 H         1 <1>         0.0849 
     31 H2         12.5994   -4.6950  -30.6871 H         1 <1>         0.0703 
     32 H3         13.4322   -7.9317  -33.3909 H         1 <1>         0.0703 
     33 H4         13.6756   -6.3144  -35.2560 H         1 <1>         0.0849 
     34 H5         11.6107   -4.2087  -36.3080 H         1 <1>         0.0595 
     35 H6         11.9804   -2.4648  -36.4290 H         1 <1>         0.0595 
     36 H7          9.4422   -1.0633  -32.5806 H         1 <1>         0.0863 
     37 H8         10.1813   -4.9527  -34.2084 H         1 <1>         0.1361 
     38 H9         15.5715   -3.2590  -33.7415 H         1 <1>         0.0576 
     39 H10        16.0017   -1.7669  -34.6377 H         1 <1>         0.0576 
     40 H11        15.8259   -2.8787  -36.7749 H         1 <1>         0.0635 
     41 H12        17.5780   -4.1791  -35.5273 H         1 <1>         0.0635 
     42 H13        16.6967   -5.2239  -36.6919 H         1 <1>         0.0635 
     43 H14        16.8875   -7.7778  -35.9366 H         1 <1>         0.0509 
     44 H15        18.7246   -9.3187  -35.2719 H         1 <1>         0.0495 
     45 H16        20.0830   -8.8294  -33.2505 H         1 <1>         0.0495 
     46 H17        19.5809   -6.8157  -31.8748 H         1 <1>         0.0509 
     47 C47        15.4940   -3.8666  -29.6486 C.2       1 <1>        -0.0847 
     48 C48        15.1961   -2.5120  -29.0420 C.3       1 <1>        -0.0405 
     49 C49        14.9875   -5.0516  -28.8552 C.3       1 <1>        -0.0405 
     50 H18        16.8002   -6.0535  -30.7653 H         1 <1>         0.0684 
     51 H19        15.6596   -5.5941  -32.0786 H         1 <1>         0.0684 
     52 H20        16.4798   -3.0697  -31.3265 H         1 <1>         0.0268 
     53 H21        14.1077   -2.3501  -29.0238 H         1 <1>         0.0375 
     54 H22        15.6552   -1.6802  -29.5972 H         1 <1>         0.0375 
     55 H23        15.5757   -2.4824  -28.0095 H         1 <1>         0.0375 
     56 H24        14.8810   -5.9647  -29.4553 H         1 <1>         0.0375 
     57 H25        13.9986   -4.8285  -28.4273 H         1 <1>         0.0375 
     58 H26        15.6861   -5.2515  -28.0291 H         1 <1>         0.0375 
@<TRIPOS>BOND
     1    2    1 ar   
     2    2    3 ar   
     3    3    4 ar   
     4    4    5 ar   
     5    5    6 ar   
     6    1    6 ar   
     7    6    7 1    
     8    7    8 1    
     9    8    9 1    
    10    9   10 1    
    11   10   11 2    
    12   11   12 1    
    13   12   13 2    
    14    9   13 1    
    15    7   14 1    
    16   14   15 1    
    17   15   16 1    
    18   16   17 1    
    19    7   17 1    
    20   16   18 1    
    21   18   19 1    
    22   19   20 1    
    23   20   21 ar   
    24   21   22 ar   
    25   22   23 ar   
    26   23   24 ar   
    27   24   25 ar   
    28   20   25 ar   
    29   25   26 1    
    30   26   27 1    
    31   27   28 1    
    32    3   29 1    
    33    1   30 1    
    34    2   31 1    
    35    4   32 1    
    36    5   33 1    
    37    8   34 1    
    38    8   35 1    
    39   11   36 1    
    40   13   37 1    
    41   15   38 1    
    42   15   39 1    
    43   16   40 1    
    44   18   41 1    
    45   18   42 1    
    46   21   43 1    
    47   22   44 1    
    48   23   45 1    
    49   24   46 1    
    50   28   47 2    
    51   47   48 1    
    52   47   49 1    
    53   27   50 1    
    54   27   51 1    
    55   28   52 1    
    56   48   53 1    
    57   48   54 1    
    58   48   55 1    
    59   49   56 1    
    60   49   57 1    
    61   49   58 1    
@<TRIPOS>SUBSTRUCTURE
     1 ****        2 TEMP              0 ****  ****    0 ROOT 
@<TRIPOS>NORMAL
@<TRIPOS>FF_PBC
FORCE_FIELD_SETUP_FEATURE Force Field Setup information
v1.0  0 0.000000 0.000000 0.000000 0.000000 0.000000 0.000000 NONE 0 0 0 0 1 0 0 0 0 0 0 0 0
@<TRIPOS>RENDERING_ATTRS
ANTIALIASED_LINES 
*
