#	Name:			PISM00790.1
#	Creating user name:	baoopengkun
#	Creation time:		Tue Jan 08 16:03:58 2019

#	Modifying user name:	baoopengkun
#	Modification time:	Tue Jan 08 16:04:24 2019

@<TRIPOS>MOLECULE
PISM00790.1
   55    59     1     1     0
SMALL
GAST_HUCK


@<TRIPOS>ATOM
      1 C1         19.9157   15.0346  -28.1603 C.ar      1 <1>        -0.0352 
      2 C2         18.0348   16.2562  -27.0574 C.ar      1 <1>        -0.0677 
      3 C3         16.7486   16.8133  -27.0493 C.ar      1 <1>        -0.0409 
      4 C4         15.9988   16.7114  -28.2215 C.ar      1 <1>         0.0664 
      5 C5         16.5179   16.0763  -29.3417 C.ar      1 <1>        -0.0096 
      6 C6         17.7894   15.5081  -29.3675 C.ar      1 <1>        -0.0641 
      7 C7         15.3892   16.2136  -30.3274 C.2       1 <1>        -0.0155 
      8 C8         14.4161   16.8633  -29.6991 C.2       1 <1>         0.1041 
      9 N9         14.7471   17.1652  -28.4716 N.pl3     1 <1>        -0.2675 
     10 C10        13.9002   17.8774  -27.5227 C.3       1 <1>         0.0369 
     11 C11        13.2867   17.0221  -30.6093 C.2       1 <1>         0.1400 
     12 O12        12.2195   17.5771  -30.4033 O.2       1 <1>        -0.4040 
     13 C13        13.7128   16.3562  -31.8544 C.2       1 <1>         0.0306 
     14 C14        15.1325   15.8190  -31.7557 C.3       1 <1>         0.0054 
     15 C15        12.9392   16.2362  -32.9380 C.2       1 <1>         0.0831 
     16 O16        13.4153   15.6072  -34.0222 O.3       1 <1>        -0.2667 
     17 C17        12.5002   15.5773  -35.1314 C.3       1 <1>         0.2400 
     18 C18        12.1668   16.9635  -35.6300 C.2       1 <1>        -0.0007 
     19 C19        10.8504   17.1621  -35.5952 C.2       1 <1>         0.0293 
     20 C20        10.3260   15.9072  -35.0646 C.2       1 <1>         0.2496 
     21 O21        11.2361   14.9867  -34.7675 O.3       1 <1>        -0.2302 
     22 C22        10.0875   18.3938  -35.9996 C.3       1 <1>        -0.0323 
     23 O23         9.1349   15.7117  -34.8973 O.2       1 <1>        -0.3691 
     24 C24        20.2629   14.1012  -27.1792 C.ar      1 <1>        -0.0641 
     25 C25        21.5512   13.5580  -27.1423 C.ar      1 <1>        -0.0328 
     26 C26        22.5046   13.9396  -28.0964 C.ar      1 <1>         0.0910 
     27 C27        22.1494   14.8708  -29.0763 C.ar      1 <1>        -0.0328 
     28 C28        20.8650   15.4207  -29.1105 C.ar      1 <1>        -0.0641 
     29 O29        23.8079   13.4209  -28.1069 O.3       1 <1>        -0.3210 
     30 C30        24.2585   12.4661  -27.1324 C.3       1 <1>         0.0596 
     31 H1         18.6456   16.3277  -26.1631 H         1 <1>         0.0551 
     32 H2         16.3536   17.3042  -26.1670 H         1 <1>         0.0548 
     33 H3         18.1636   15.0093  -30.2546 H         1 <1>         0.0558 
     34 H4         13.7313   17.2477  -26.6362 H         1 <1>         0.0555 
     35 H5         12.9230   18.1326  -27.9605 H         1 <1>         0.0555 
     36 C36        18.5494   15.6126  -28.1950 C.ar      1 <1>        -0.0382 
     37 H6         14.3984   18.8092  -27.2151 H         1 <1>         0.0555 
     38 C38        16.1191   16.5414  -32.7047 C.3       1 <1>        -0.0510 
     39 H8         15.1621   14.7239  -31.8732 H         1 <1>         0.0507 
     40 H9         11.9371   16.6669  -32.8740 H         1 <1>         0.1132 
     41 H10        12.9536   14.9914  -35.9470 H         1 <1>         0.1214 
     42 H11        12.9024   17.6919  -35.9686 H         1 <1>         0.0706 
     43 H12        10.1872   18.5515  -37.0838 H         1 <1>         0.0347 
     44 H13        10.4867   19.2708  -35.4686 H         1 <1>         0.0347 
     45 H14         9.0213   18.2820  -35.7513 H         1 <1>         0.0347 
     46 H15        19.5270   13.7941  -26.4423 H         1 <1>         0.0587 
     47 H16        21.7834   12.8424  -26.3633 H         1 <1>         0.0544 
     48 H17        22.8846   15.1674  -29.8169 H         1 <1>         0.0544 
     49 H18        20.6072   16.1483  -29.8737 H         1 <1>         0.0587 
     50 H19        24.2130   12.8871  -26.1163 H         1 <1>         0.0578 
     51 H20        25.3070   12.2250  -27.3607 H         1 <1>         0.0578 
     52 H21        23.6699   11.5374  -27.1869 H         1 <1>         0.0578 
     53 H7         17.1492   16.2182  -32.4897 H         1 <1>         0.0265 
     54 H22        16.0536   17.6317  -32.5649 H         1 <1>         0.0265 
     55 H23        15.8890   16.3043  -33.7542 H         1 <1>         0.0265 
@<TRIPOS>BOND
     1   36    1 1    
     2    3    2 ar   
     3    4    3 ar   
     4    5    4 ar   
     5    6    5 ar   
     6    1   24 ar   
     7    5    7 1    
     8    7    8 2    
     9    8    9 1    
    10    4    9 1    
    11    9   10 1    
    12    8   11 1    
    13   11   12 2    
    14   13   11 1    
    15   14   13 1    
    16    7   14 1    
    17   13   15 2    
    18   15   16 1    
    19   16   17 1    
    20   17   18 1    
    21   18   19 2    
    22   20   19 1    
    23   21   20 1    
    24   17   21 1    
    25   19   22 1    
    26   20   23 2    
    27    6   36 ar   
    28   24   25 ar   
    29   25   26 ar   
    30   26   27 ar   
    31   27   28 ar   
    32    1   28 ar   
    33   26   29 1    
    34   29   30 1    
    35    2   31 1    
    36    3   32 1    
    37    6   33 1    
    38   10   34 1    
    39   10   35 1    
    40   10   37 1    
    41    2   36 ar   
    42   14   38 1    
    43   14   39 1    
    44   15   40 1    
    45   17   41 1    
    46   18   42 1    
    47   22   43 1    
    48   22   44 1    
    49   22   45 1    
    50   24   46 1    
    51   25   47 1    
    52   27   48 1    
    53   28   49 1    
    54   30   50 1    
    55   30   51 1    
    56   30   52 1    
    57   38   53 1    
    58   38   54 1    
    59   38   55 1    
@<TRIPOS>SUBSTRUCTURE
     1 ****        2 TEMP              0 ****  ****    0 ROOT 
@<TRIPOS>NORMAL
@<TRIPOS>FF_PBC
FORCE_FIELD_SETUP_FEATURE Force Field Setup information
v1.0  0 0.000000 0.000000 0.000000 0.000000 0.000000 0.000000 NONE 0 0 0 0 1 0 0 0 0 0 0 0 0
