#	Name:			PISM00189
#	Creating user name:	14062
#	Creation time:		Sun Mar 31 18:26:57 2019

#	Modifying user name:	14062
#	Modification time:	Sun Mar 31 18:40:33 2019

@<TRIPOS>MOLECULE
PISM00189
   43    44     1     2     0
SMALL
GAST_HUCK


@<TRIPOS>ATOM
      1 C1         -3.2764   -5.0852   -0.3651 C.ar      1 <1>        -0.0768 
      2 C2         -2.2039   -5.9786   -0.2125 C.ar      1 <1>        -0.0748 
      3 C3         -0.8862   -5.5169   -0.0849 C.ar      1 <1>        -0.0467 
      4 C4         -0.6830   -4.1373   -0.1177 C.ar      1 <1>         0.0450 
      5 C5         -1.7442   -3.2704   -0.2773 C.ar      1 <1>        -0.0185 
      6 C6         -3.0642   -3.7009   -0.3980 C.ar      1 <1>        -0.0716 
      7 C7         -1.0421   -1.9417   -0.2727 C.2       1 <1>        -0.0224 
      8 C8          0.2686   -2.1983   -0.1147 C.2       1 <1>         0.0040 
      9 N9          0.5703   -3.5024    0.0001 N.3       1 <1>        -0.2350 
     10 C10        -1.7255   -0.6057   -0.4294 C.3       1 <1>         0.0784 
     11 C11        -0.8077    0.4885    0.0784 C.2       1 <1>         0.2403 
     12 O12        -0.2847    1.2899   -0.6759 O.2       1 <1>        -0.3685 
     13 O13        -0.5476    0.5666    1.3882 O.3       1 <1>        -0.2916 
     14 C14        -2.1373   -0.4229   -1.9177 C.3       1 <1>        -0.0271 
     15 C15        -4.8163    2.3495   -5.3123 C.3       1 <1>        -0.0533 
     16 C16        -5.6299    3.6526   -5.5417 C.3       1 <1>        -0.0559 
     17 C17        -6.1608    3.7395   -6.9963 C.3       1 <1>        -0.0653 
     18 H1         -4.2865   -5.4723   -0.4597 H         1 <1>         0.0524 
     19 H2         -2.3968   -7.0467   -0.1925 H         1 <1>         0.0543 
     20 H3         -0.0532   -6.2012    0.0343 H         1 <1>         0.0548 
     21 H4         -3.8825   -2.9979   -0.5118 H         1 <1>         0.0551 
     22 H5          1.0355   -1.4227   -0.0868 H         1 <1>         0.0760 
     23 H6          0.9835   -3.7003    0.9801 H         1 <1>         0.1886 
     24 H7         -2.6355   -0.6132    0.1909 H         1 <1>         0.0644 
     25 H8         -0.9683   -0.0994    1.9178 H         1 <1>         0.2540 
     26 C26        -3.0186    0.8393   -2.1372 C.3       1 <1>        -0.0495 
     27 H9         -2.7117   -1.3065   -2.2411 H         1 <1>         0.0308 
     28 H10        -1.2298   -0.3623   -2.5406 H         1 <1>         0.0308 
     29 C29        -3.4779    0.9594   -3.6167 C.3       1 <1>        -0.0528 
     30 H11        -5.4525    1.4782   -5.5390 H         1 <1>         0.0265 
     31 C31        -4.3136    2.2491   -3.8459 C.3       1 <1>        -0.0531 
     32 H12        -3.9533    2.3345   -5.9982 H         1 <1>         0.0265 
     33 H13        -4.9893    4.5271   -5.3386 H         1 <1>         0.0263 
     34 H14        -6.4845    3.6823   -4.8452 H         1 <1>         0.0263 
     35 H15        -5.3246    3.7250   -7.7126 H         1 <1>         0.0230 
     36 H16        -6.7272    4.6737   -7.1375 H         1 <1>         0.0230 
     37 H17        -6.8273    2.8901   -7.2131 H         1 <1>         0.0230 
     38 H18        -2.4542    1.7446   -1.8642 H         1 <1>         0.0268 
     39 H19        -3.9086    0.7827   -1.4891 H         1 <1>         0.0268 
     40 H20        -4.0856    0.0784   -3.8815 H         1 <1>         0.0265 
     41 H21        -2.5932    0.9790   -4.2743 H         1 <1>         0.0265 
     42 H22        -3.6928    3.1299   -3.6125 H         1 <1>         0.0265 
     43 H23        -5.1807    2.2480   -3.1652 H         1 <1>         0.0265 
@<TRIPOS>BOND
     1    2    1 ar   
     2    2    3 ar   
     3    3    4 ar   
     4    4    5 ar   
     5    5    6 ar   
     6    1    6 ar   
     7    5    7 1    
     8    7    8 2    
     9    8    9 1    
    10    4    9 1    
    11    7   10 1    
    12   10   11 1    
    13   11   12 2    
    14   11   13 1    
    15   10   14 1    
    16   31   15 1    
    17   15   16 1    
    18   16   17 1    
    19    1   18 1    
    20    2   19 1    
    21    3   20 1    
    22    6   21 1    
    23    8   22 1    
    24    9   23 1    
    25   10   24 1    
    26   13   25 1    
    27   14   26 1    
    28   14   27 1    
    29   14   28 1    
    30   26   29 1    
    31   15   30 1    
    32   29   31 1    
    33   15   32 1    
    34   16   33 1    
    35   16   34 1    
    36   17   35 1    
    37   17   36 1    
    38   17   37 1    
    39   26   38 1    
    40   26   39 1    
    41   29   40 1    
    42   29   41 1    
    43   31   42 1    
    44   31   43 1    
@<TRIPOS>SUBSTRUCTURE
     1 ****        2 TEMP              0 ****  ****    0 ROOT 
@<TRIPOS>NORMAL
@<TRIPOS>FF_PBC
FORCE_FIELD_SETUP_FEATURE Force Field Setup information
v1.0  0 0.000000 0.000000 0.000000 0.000000 0.000000 0.000000 NONE 0 0 0 0 1 0 0 0 0 0 0 0 0
@<TRIPOS>RENDERING_ATTRS
ANTIALIASED_LINES 
1,2,3,4,5,6,7,8,9,10,11,12,13,14,15,16,17,26,29,31
