#	Name:			PISM00157
#	Creating user name:	14062
#	Creation time:		Wed Jun 19 15:32:42 2019

#	Modifying user name:	14062
#	Modification time:	Wed Jun 19 15:36:33 2019

@<TRIPOS>MOLECULE
PISM00157
   16    16     1     2     0
SMALL
GAST_HUCK


@<TRIPOS>ATOM
      1 C1         10.0970   -4.4909   12.2971 C.2       1 BENZYL      0.2753 
      2 O2         11.2466   -4.8904   12.3616 O.2       1 BENZYL     -0.3513 
      3 C2          9.1617   -4.9196   11.1835 C.ar      1 BENZYL      0.1309 
      4 N4          7.9161   -4.4017   11.2035 N.ar      1 BENZYL     -0.2789 
      5 C4          7.0062   -4.6995   10.2570 C.ar      1 BENZYL      0.1224 
      6 C5          7.3312   -5.5621    9.2074 C.ar      1 BENZYL      0.1041 
      7 C6          8.6135   -6.1293    9.1518 C.ar      1 BENZYL      0.0878 
      8 C7          9.5324   -5.8084   10.1650 C.ar      1 BENZYL      0.1027 
      9 Cl9         5.4123   -3.9834   10.3688 Cl        1 BENZYL     -0.0422 
     10 Cl10        6.1160   -5.9033    7.9868 Cl        1 BENZYL     -0.0702 
     11 Cl11       11.1386   -6.5207   10.1630 Cl        1 BENZYL     -0.0677 
     12 O12         9.6816   -3.6523   13.2485 O.3       1 BENZYL     -0.2918 
     13 N13         8.9540   -6.9700    8.1378 N.pl3     1 BENZYL     -0.3272 
     14 H1          8.7762   -3.3955   13.1146 H         1 BENZYL      0.2525 
     15 H2          8.2441   -7.3278    7.4831 H         1 BENZYL      0.1768 
     16 H3          9.9299   -7.2670    7.9961 H         1 BENZYL      0.1768 
@<TRIPOS>BOND
     1    3    1 1    
     2    3    4 ar   
     3    3    8 ar   
     4    8    7 ar   
     5    7    6 ar   
     6    6    5 ar   
     7    5    4 ar   
     8    1    2 2    
     9    5    9 1    
    10    6   10 1    
    11    8   11 1    
    12    1   12 1    
    13    7   13 1    
    14   12   14 1    
    15   13   15 1    
    16   13   16 1    
@<TRIPOS>SUBSTRUCTURE
     1 BENZYL      3 PERM              0 ****  ****    0 ROOT 
@<TRIPOS>NORMAL
@<TRIPOS>FF_PBC
FORCE_FIELD_SETUP_FEATURE Force Field Setup information
v1.0  0 0.000000 0.000000 0.000000 0.000000 0.000000 0.000000 NONE 0 0 0 0 1 0 0 0 0 0 0 0 0
@<TRIPOS>RENDERING_ATTRS
ANTIALIASED_LINES 
1,2,3,4,5,6,7,8,9,10,11,12,13
