#	Name:			PISM00620
#	Creating user name:	baoopengkun
#	Creation time:		Mon Dec 10 11:14:42 2018

#	Modifying user name:	baoopengkun
#	Modification time:	Mon Dec 10 11:14:57 2018

@<TRIPOS>MOLECULE
PISM00620
   57    60     1     2     0
SMALL
GAST_HUCK


@<TRIPOS>ATOM
      1 C1         13.1540    0.9976  -30.0682 C.ar      1 <1>        -0.0348 
      2 C2         12.4967   -0.2248  -29.9042 C.ar      1 <1>        -0.0180 
      3 C3         11.8159   -0.8015  -30.9796 C.ar      1 <1>         0.0714 
      4 C4         11.7683   -0.1415  -32.2103 C.ar      1 <1>        -0.0180 
      5 C5         12.4350    1.0756  -32.3764 C.ar      1 <1>        -0.0348 
      6 C6         13.1579    1.6306  -31.3154 C.ar      1 <1>         0.0068 
      7 C7         13.9500    2.9282  -31.5197 C.3       1 <1>         0.1921 
      8 C8         13.0077    4.1342  -31.3140 C.3       1 <1>         0.1073 
      9 N9         12.2844    4.0056  -30.0561 N.pl3     1 <1>        -0.1814 
     10 N10        12.6510    4.5231  -28.8503 N.2       1 <1>        -0.1908 
     11 C11        11.8102    4.2713  -27.9172 C.2       1 <1>         0.0618 
     12 N12        10.8183    3.5260  -28.6422 N.2       1 <1>        -0.2870 
     13 C13        11.1459    3.4171  -29.8483 C.2       1 <1>         0.1270 
     14 O14        15.1047    3.0096  -30.6730 O.3       1 <1>        -0.3814 
     15 C15        16.0616    2.0914  -31.2072 C.3       1 <1>         0.0672 
     16 C16        15.8215    2.2608  -32.7276 C.3       1 <1>         0.1000 
     17 O17        14.5691    2.9639  -32.8145 O.3       1 <1>        -0.3758 
     18 C18        15.8139    0.9076  -33.4844 C.3       1 <1>         0.0952 
     19 O19        14.8344    0.0248  -32.9151 O.3       1 <1>        -0.3192 
     20 C20        14.8127   -1.2591  -33.4556 C.ar      1 <1>         0.1198 
     21 C21        13.9176   -1.5584  -34.4851 C.ar      1 <1>        -0.0415 
     22 C22        13.8727   -2.8498  -35.0158 C.ar      1 <1>        -0.0819 
     23 C23        14.7312   -3.8332  -34.5169 C.ar      1 <1>        -0.0819 
     24 C24        15.6345   -3.5293  -33.4931 C.ar      1 <1>        -0.0415 
     25 C25        15.6827   -2.2347  -32.9577 C.ar      1 <1>         0.1197 
     26 O26        16.5764   -1.8777  -31.9357 O.3       1 <1>        -0.3218 
     27 C27        17.4354   -2.8294  -31.2879 C.3       1 <1>         0.0679 
     28 C28        18.2231   -2.0738  -30.1886 C.3       1 <1>        -0.0257 
     29 Cl29       11.0214   -2.3504  -30.7859 Cl        1 <1>        -0.0420 
     30 H1         13.6620    1.4570  -29.2254 H         1 <1>         0.0849 
     31 H2         12.5144   -0.7272  -28.9425 H         1 <1>         0.0703 
     32 H3         11.2160   -0.5779  -33.0359 H         1 <1>         0.0703 
     33 H4         12.4001    1.5862  -33.3334 H         1 <1>         0.0849 
     34 H5         12.3006    4.1893  -32.1554 H         1 <1>         0.0595 
     35 H6         13.6098    5.0547  -31.3013 H         1 <1>         0.0595 
     36 H7         11.8402    4.5486  -26.8645 H         1 <1>         0.0863 
     37 H8         10.5473    2.8987  -30.5964 H         1 <1>         0.1361 
     38 H9         15.8279    1.0709  -30.8646 H         1 <1>         0.0576 
     39 H10        17.0836    2.3466  -30.8877 H         1 <1>         0.0576 
     40 H11        16.5798    2.9319  -33.1640 H         1 <1>         0.0635 
     41 H12        16.8170    0.4568  -33.4080 H         1 <1>         0.0635 
     42 H13        15.5787    1.0880  -34.5453 H         1 <1>         0.0635 
     43 H14        13.2607   -0.7850  -34.8686 H         1 <1>         0.0509 
     44 H15        13.1740   -3.0879  -35.8121 H         1 <1>         0.0495 
     45 H16        14.6958   -4.8379  -34.9277 H         1 <1>         0.0495 
     46 H17        16.2862   -4.3158  -33.1331 H         1 <1>         0.0509 
     47 H18        18.1435   -3.2624  -32.0129 H         1 <1>         0.0609 
     48 H19        16.8358   -3.6306  -30.8258 H         1 <1>         0.0609 
     49 C49        19.1870   -3.0185  -29.4205 C.3       1 <1>        -0.0535 
     50 H20        17.5041   -1.6233  -29.4844 H         1 <1>         0.0291 
     51 H21        18.7970   -1.2594  -30.6606 H         1 <1>         0.0291 
     52 H22        18.6097   -3.8303  -28.9471 H         1 <1>         0.0263 
     53 C53        19.9724   -2.2498  -28.3262 C.3       1 <1>        -0.0652 
     54 H23        19.9027   -3.4705  -30.1274 H         1 <1>         0.0263 
     55 H24        20.6497   -2.9356  -27.7929 H         1 <1>         0.0230 
     56 H25        19.2784   -1.8047  -27.5961 H         1 <1>         0.0230 
     57 H26        20.5735   -1.4454  -28.7783 H         1 <1>         0.0230 
@<TRIPOS>BOND
     1    2    1 ar   
     2    2    3 ar   
     3    3    4 ar   
     4    4    5 ar   
     5    5    6 ar   
     6    1    6 ar   
     7    6    7 1    
     8    7    8 1    
     9    8    9 1    
    10    9   10 1    
    11   10   11 2    
    12   11   12 1    
    13   12   13 2    
    14    9   13 1    
    15    7   14 1    
    16   14   15 1    
    17   15   16 1    
    18   16   17 1    
    19    7   17 1    
    20   16   18 1    
    21   18   19 1    
    22   19   20 1    
    23   20   21 ar   
    24   21   22 ar   
    25   22   23 ar   
    26   23   24 ar   
    27   24   25 ar   
    28   20   25 ar   
    29   25   26 1    
    30   26   27 1    
    31   27   28 1    
    32    3   29 1    
    33    1   30 1    
    34    2   31 1    
    35    4   32 1    
    36    5   33 1    
    37    8   34 1    
    38    8   35 1    
    39   11   36 1    
    40   13   37 1    
    41   15   38 1    
    42   15   39 1    
    43   16   40 1    
    44   18   41 1    
    45   18   42 1    
    46   21   43 1    
    47   22   44 1    
    48   23   45 1    
    49   24   46 1    
    50   27   47 1    
    51   27   48 1    
    52   28   49 1    
    53   28   50 1    
    54   28   51 1    
    55   49   52 1    
    56   49   53 1    
    57   49   54 1    
    58   53   55 1    
    59   53   56 1    
    60   53   57 1    
@<TRIPOS>SUBSTRUCTURE
     1 ****        2 TEMP              0 ****  ****    0 ROOT 
@<TRIPOS>NORMAL
@<TRIPOS>FF_PBC
FORCE_FIELD_SETUP_FEATURE Force Field Setup information
v1.0  0 0.000000 0.000000 0.000000 0.000000 0.000000 0.000000 NONE 0 0 0 0 1 0 0 0 0 0 0 0 0
@<TRIPOS>RENDERING_ATTRS
ANTIALIASED_LINES 
*
