#	Name:			PISM00143
#	Creating user name:	14062
#	Creation time:		Sat Oct 19 22:06:33 2019

#	Modifying user name:	14062
#	Modification time:	Sat Oct 19 22:12:43 2019

@<TRIPOS>MOLECULE
PISM00143
   38    39     1     1     0
SMALL
GAST_HUCK


@<TRIPOS>ATOM
      1 C1         -0.8457  -12.4633   -3.1916 C.ar      1 NO2        -0.0189 
      2 C2         -1.6214  -12.4965   -4.3542 C.ar      1 NO2         0.0387 
      3 N3         -1.8044  -11.3724   -5.0763 N.ar      1 NO2        -0.2535 
      4 C4         -1.2382  -10.1993   -4.7263 C.ar      1 NO2         0.1517 
      5 C5         -0.4943  -10.1066   -3.5464 C.ar      1 NO2         0.0072 
      6 C6         -0.2800  -11.2534   -2.7764 C.ar      1 NO2         0.0501 
      7 C7          0.5647  -11.1534   -1.5019 C.3       1 NO2         0.3843 
      8 F8          0.0753  -10.1587   -0.7143 F         1 NO2        -0.2117 
      9 F9          0.5511  -12.3176   -0.7976 F         1 NO2        -0.2117 
     10 F10         1.8471  -10.8581   -1.8432 F         1 NO2        -0.2117 
     11 C11        -2.2687  -13.8004   -4.8202 C.3       1 NO2        -0.0132 
     12 N12        -1.4221   -9.1345   -5.5389 N.pl3     1 NO2        -0.2163 
     13 N13        -0.3764   -7.7473   -5.4957 N.pl3     1 NO2        -0.2493 
     14 C14        -0.7467   -6.6089   -6.1310 C.ar      1 NO2         0.0825 
     15 C15        -2.0943   -6.2278   -6.1124 C.ar      1 NO2         0.0988 
     16 C16        -2.5376   -5.2210   -6.9754 C.ar      1 NO2        -0.1233 
     17 C17        -1.6279   -4.5081   -7.7633 C.ar      1 NO2        -0.2575 
     18 C18        -0.2621   -4.7849   -7.6347 C.ar      1 NO2        -0.1233 
     19 C19         0.1947   -5.8262   -6.8171 C.ar      1 NO2         0.0988 
     20 N20        -2.9599   -6.8213   -5.2533 N.pl3     1 NO2         0.0519 
     21 O21        -4.1391   -6.9136   -5.5182 O.2       1 NO2        -0.1280 
     22 O22        -2.5113   -7.3034   -4.0154 O.3       1 NO2        -0.0317 
     23 N           1.5262   -6.0732   -6.7021 N.pl3     1 NO2         0.0519 
     24 O24         2.0150   -6.9695   -5.7424 O.3       1 NO2        -0.0317 
     25 O           2.3331   -5.5164   -7.4152 O.2       1 NO2        -0.1280 
     26 C26        -2.1166   -3.4316   -8.7494 C.3       1 NO2        -0.0416 
     27 H1         -0.6903  -13.3735   -2.6227 H         1 NO2         0.0755 
     28 H2         -0.0914   -9.1560   -3.2197 H         1 NO2         0.0780 
     29 H3         -1.4889  -14.5518   -5.0147 H         1 NO2         0.0421 
     30 H4         -2.8388  -13.6267   -5.7453 H         1 NO2         0.0421 
     31 H5         -2.9515  -14.1733   -4.0424 H         1 NO2         0.0421 
     32 H6         -2.1941   -9.1607   -6.2237 H         1 NO2         0.2089 
     33 H7          0.5525   -7.8113   -5.0543 H         1 NO2         0.1904 
     34 H8         -3.5936   -4.9797   -7.0306 H         1 NO2         0.0114 
     35 H9          0.4448   -4.1736   -8.1850 H         1 NO2         0.0114 
     36 F36        -1.3073   -3.3703   -9.8435 F         1 NO2        -0.4888 
     37 F37        -2.1083   -2.2177   -8.1327 F         1 NO2        -0.4888 
     38 F38        -3.3828   -3.6929   -9.1790 F         1 NO2        -0.4888 
@<TRIPOS>BOND
     1    2    1 ar   
     2    3    2 ar   
     3    4    3 ar   
     4    4    5 ar   
     5    5    6 ar   
     6    6    1 ar   
     7    6    7 1    
     8    7    8 1    
     9    7    9 1    
    10    7   10 1    
    11    2   11 1    
    12   12    4 1    
    13   13   12 1    
    14   14   13 1    
    15   14   15 ar   
    16   15   16 ar   
    17   17   16 ar   
    18   18   17 ar   
    19   19   18 ar   
    20   19   14 ar   
    21   15   20 1    
    22   20   21 2    
    23   20   22 1    
    24   23   24 1    
    25   23   25 2    
    26   23   19 1    
    27   17   26 1    
    28    1   27 1    
    29    5   28 1    
    30   11   29 1    
    31   11   30 1    
    32   11   31 1    
    33   12   32 1    
    34   13   33 1    
    35   16   34 1    
    36   18   35 1    
    37   26   36 1    
    38   26   37 1    
    39   26   38 1    
@<TRIPOS>SUBSTRUCTURE
     1 NO2        23 PERM              0 ****  ****    0 ROOT 
@<TRIPOS>NORMAL
@<TRIPOS>FF_PBC
FORCE_FIELD_SETUP_FEATURE Force Field Setup information
v1.0  0 0.000000 0.000000 0.000000 0.000000 0.000000 0.000000 NONE 0 0 0 0 1 0 0 0 0 0 0 0 0
