#	Name:			PISM00126
#	Creating user name:	malab
#	Creation time:		Mon Apr 08 23:40:31 2019

#	Modifying user name:	malab
#	Modification time:	Mon Apr 08 23:41:32 2019

@<TRIPOS>MOLECULE
PISM00126
   23    24     1     1     0
SMALL
GAST_HUCK


@<TRIPOS>ATOM
      1 F1         26.9817   11.0717    8.8924 F         1 <1>        -0.1822 
      2 C2         26.5929    9.8039    8.5892 C.3       1 <1>         0.3184 
      3 F3         25.2940    9.8189    8.1811 F         1 <1>        -0.1822 
      4 C4         26.7873    8.9296    9.8013 C.2       1 <1>         0.1920 
      5 C5         25.7862    8.4487   10.5504 C.2       1 <1>         0.0050 
      6 C6         26.0605    7.5946   11.7115 C.2       1 <1>         0.0998 
      7 C7         27.5094    7.3087   12.0163 C.ar      1 <1>         0.0632 
      8 C8         28.4605    7.8821   11.1701 C.ar      1 <1>         0.1544 
      9 O9         28.0765    8.6685   10.0759 O.3       1 <1>        -0.2199 
     10 O10        25.1565    7.1411   12.3947 O.2       1 <1>        -0.4245 
     11 C11        27.9005    6.5103   13.0948 C.ar      1 <1>        -0.0292 
     12 C12        29.2597    6.3068   13.3675 C.ar      1 <1>         0.0577 
     13 C13        30.2122    6.8912   12.5221 C.ar      1 <1>        -0.0428 
     14 C14        29.8157    7.6631   11.4259 C.ar      1 <1>        -0.0129 
     15 N15        29.6506    5.5601   14.4316 N.pl3     1 <1>         0.2548 
     16 O16        28.8236    5.0459   15.1579 O.2       1 <1>        -0.3615 
     17 O17        31.0189    5.4113   14.7326 O.3       1 <1>        -0.2946 
     18 H1         27.2051    9.4303    7.7538 H         1 <1>         0.1306 
     19 H2         24.7475    8.6801   10.3158 H         1 <1>         0.0249 
     20 H3         27.1376    6.0546   13.7157 H         1 <1>         0.0700 
     21 H4         31.2714    6.7540   12.7053 H         1 <1>         0.0680 
     22 H5         30.5625    8.0962   10.7680 H         1 <1>         0.0590 
     23 H6         31.1929    4.6444   15.2677 H         1 <1>         0.2521 
@<TRIPOS>BOND
     1    2    1 1    
     2    2    3 1    
     3    2    4 1    
     4    4    5 2    
     5    5    6 1    
     6    6    7 1    
     7    7    8 ar   
     8    8    9 1    
     9    4    9 1    
    10    6   10 2    
    11    7   11 ar   
    12   11   12 ar   
    13   12   13 ar   
    14   13   14 ar   
    15    8   14 ar   
    16   12   15 1    
    17   15   16 2    
    18   15   17 1    
    19    2   18 1    
    20    5   19 1    
    21   11   20 1    
    22   13   21 1    
    23   14   22 1    
    24   17   23 1    
@<TRIPOS>SUBSTRUCTURE
     1 ****        2 TEMP              0 ****  ****    0 ROOT 
@<TRIPOS>NORMAL
@<TRIPOS>FF_PBC
FORCE_FIELD_SETUP_FEATURE Force Field Setup information
v1.0  0 0.000000 0.000000 0.000000 0.000000 0.000000 0.000000 NONE 0 0 0 0 0 0 0 0 0 0 0 0 0
