#	Name:			PISM00348
#	Creating user name:	baoopengkun
#	Creation time:		Sun Dec 16 03:29:03 2018

#	Modifying user name:	baoopengkun
#	Modification time:	Sun Dec 16 03:34:43 2018

@<TRIPOS>MOLECULE
PISM00348
   35    37     1     1     0
SMALL
GAST_HUCK


@<TRIPOS>ATOM
      1 C1        -20.1374    9.8989   45.7671 C.ar      1 <1>        -0.0538 
      2 C2        -21.2916    9.6858   45.0099 C.ar      1 <1>        -0.0607 
      3 C3        -21.6473   10.6010   44.0196 C.ar      1 <1>        -0.0605 
      4 C4        -20.8573   11.7332   43.8134 C.ar      1 <1>        -0.0511 
      5 C5        -19.7411   11.9952   44.6194 C.ar      1 <1>         0.0112 
      6 C6        -19.3414   11.0366   45.5662 C.ar      1 <1>        -0.0084 
      7 C7        -18.1555   11.2338   46.2914 C.ar      1 <1>         0.0197 
      8 C8        -17.3916   12.3839   46.0817 C.ar      1 <1>        -0.0494 
      9 C9        -17.8247   13.3610   45.1852 C.ar      1 <1>        -0.0306 
     10 C10       -19.0254   13.1961   44.4901 C.ar      1 <1>         0.1195 
     11 Br11      -17.5392   10.0070   47.5425 Br        1 <1>        -0.0495 
     12 S12       -19.5800   14.5528   43.4625 S.o2      1 <1>         0.0723 
     13 O13       -19.6660   14.1080   42.0854 O.2       1 <1>        -0.1496 
     14 O14       -18.8018   15.7352   43.7714 O.2       1 <1>        -0.1496 
     15 N15       -21.1017   14.8087   44.0492 N.am      1 <1>        -0.2345 
     16 C16       -22.1832   15.3026   43.2065 C.3       1 <1>         0.0664 
     17 C17       -23.1289   14.1352   42.9005 C.ar      1 <1>         0.0034 
     18 C18       -23.2247   13.5887   41.6155 C.ar      1 <1>         0.0141 
     19 N19       -24.0457   12.5463   41.3710 N.ar      1 <1>        -0.3044 
     20 C20       -24.7954   11.9918   42.3453 C.ar      1 <1>         0.0042 
     21 C21       -24.7471   12.5014   43.6453 C.ar      1 <1>        -0.0404 
     22 C22       -23.9113   13.5862   43.9215 C.ar      1 <1>        -0.0389 
     23 H1        -19.8836    9.1541   46.5123 H         1 <1>         0.0620 
     24 H2        -21.9093    8.8102   45.1872 H         1 <1>         0.0624 
     25 H3        -22.5311   10.4322   43.4114 H         1 <1>         0.0618 
     26 H4        -21.1329   12.3950   43.0059 H         1 <1>         0.0630 
     27 H5        -16.4583   12.5213   46.6192 H         1 <1>         0.0655 
     28 H6        -17.2232   14.2511   45.0347 H         1 <1>         0.0646 
     29 H7        -21.2897   14.6507   45.0205 H         1 <1>         0.1702 
     30 H8        -21.7758   15.7387   42.2810 H         1 <1>         0.0654 
     31 H9        -22.7460   16.0953   43.7252 H         1 <1>         0.0654 
     32 H10       -22.6370   13.9914   40.7980 H         1 <1>         0.0766 
     33 H11       -25.4349   11.1475   42.1102 H         1 <1>         0.0767 
     34 H12       -25.3517   12.0589   44.4307 H         1 <1>         0.0693 
     35 H13       -23.8711   13.9960   44.9254 H         1 <1>         0.0678 
@<TRIPOS>BOND
     1    2    1 ar   
     2    2    3 ar   
     3    3    4 ar   
     4    4    5 ar   
     5    5    6 ar   
     6    1    6 ar   
     7    6    7 ar   
     8    7    8 ar   
     9    8    9 ar   
    10    9   10 ar   
    11    5   10 ar   
    12    7   11 1    
    13   10   12 1    
    14   12   13 2    
    15   12   14 2    
    16   12   15 1    
    17   15   16 1    
    18   16   17 1    
    19   17   18 ar   
    20   18   19 ar   
    21   19   20 ar   
    22   20   21 ar   
    23   21   22 ar   
    24   17   22 ar   
    25    1   23 1    
    26    2   24 1    
    27    3   25 1    
    28    4   26 1    
    29    8   27 1    
    30    9   28 1    
    31   15   29 1    
    32   16   30 1    
    33   16   31 1    
    34   18   32 1    
    35   20   33 1    
    36   21   34 1    
    37   22   35 1    
@<TRIPOS>SUBSTRUCTURE
     1 ****        2 TEMP              0 ****  ****    0 ROOT 
@<TRIPOS>NORMAL
@<TRIPOS>FF_PBC
FORCE_FIELD_SETUP_FEATURE Force Field Setup information
v1.0  0 0.000000 0.000000 0.000000 0.000000 0.000000 0.000000 NONE 0 0 0 0 1 0 0 0 0 0 0 0 0
