#	Name:			PISM00856.1
#	Creating user name:	baoopengkun
#	Creation time:		Thu Dec 13 15:12:19 2018

#	Modifying user name:	baoopengkun
#	Modification time:	Thu Dec 13 20:13:22 2018

@<TRIPOS>MOLECULE
PISM00856.1
   24    25     1     1     0
SMALL
GAST_HUCK


@<TRIPOS>ATOM
      1 Cl1         0.0027   -0.6533    1.8751 Cl        1 <1>        -0.0762 
      2 C2          1.9902   -1.7343    3.4045 C.ar      1 <1>        -0.0538 
      3 C3          3.2808   -1.7755    3.9406 C.ar      1 <1>        -0.0628 
      4 C4          4.2081   -0.7839    3.6075 C.ar      1 <1>         0.0045 
      5 C5          3.8431    0.2457    2.7359 C.ar      1 <1>        -0.0224 
      6 C6          2.5602    0.2761    2.1830 C.ar      1 <1>         0.1150 
      7 C7          1.6269   -0.7061    2.5299 C.ar      1 <1>         0.0712 
      8 Br8         5.9178   -0.8331    4.3187 Br        1 <1>        -0.0526 
      9 O9          2.2189    1.2903    1.2891 O.3       1 <1>        -0.2693 
     10 C10         2.3254    0.9288   -0.0961 C.3       1 <1>         0.2359 
     11 O11         2.0218    2.1014   -0.8769 O.3       1 <1>        -0.2313 
     12 C12         3.1436    2.3941   -1.5232 C.2       1 <1>         0.2494 
     13 C13         4.2543    1.4757   -1.3002 C.2       1 <1>         0.0292 
     14 C14         3.7529    0.5820   -0.4505 C.2       1 <1>        -0.0019 
     15 C15         5.6332    1.5175   -1.9000 C.3       1 <1>        -0.0323 
     16 O16         3.2309    3.3620   -2.2589 O.2       1 <1>        -0.3691 
     17 H1          1.2679   -2.5005    3.6673 H         1 <1>         0.0601 
     18 H2          3.5626   -2.5770    4.6162 H         1 <1>         0.0549 
     19 H3          4.5541    1.0251    2.4837 H         1 <1>         0.0568 
     20 H4          1.6338    0.1157   -0.3706 H         1 <1>         0.1199 
     21 H5          4.2999   -0.2765   -0.0627 H         1 <1>         0.0705 
     22 H6          5.9345    0.5112   -2.2275 H         1 <1>         0.0347 
     23 H7          6.3482    1.8817   -1.1476 H         1 <1>         0.0347 
     24 H8          5.6503    2.1943   -2.7675 H         1 <1>         0.0347 
@<TRIPOS>BOND
     1    7    1 1    
     2    2    3 ar   
     3    3    4 ar   
     4    4    5 ar   
     5    5    6 ar   
     6    6    7 ar   
     7    2    7 ar   
     8    4    8 1    
     9    6    9 1    
    10    9   10 1    
    11   10   11 1    
    12   11   12 1    
    13   12   13 1    
    14   13   14 2    
    15   10   14 1    
    16   13   15 1    
    17   12   16 2    
    18    2   17 1    
    19    3   18 1    
    20    5   19 1    
    21   10   20 1    
    22   14   21 1    
    23   15   22 1    
    24   15   23 1    
    25   15   24 1    
@<TRIPOS>SUBSTRUCTURE
     1 ****        2 TEMP              0 ****  ****    0 ROOT 
@<TRIPOS>NORMAL
@<TRIPOS>FF_PBC
FORCE_FIELD_SETUP_FEATURE Force Field Setup information
v1.0  0 0.000000 0.000000 0.000000 0.000000 0.000000 0.000000 NONE 0 0 0 0 1 0 0 0 0 0 0 0 0
