#	Name:			PISM00572
#	Creating user name:	baoopengkun
#	Creation time:		Wed Dec 19 10:55:03 2018

#	Modifying user name:	baoopengkun
#	Modification time:	Wed Dec 19 11:02:33 2018

@<TRIPOS>MOLECULE
PISM00572
   16    16     1     1     0
SMALL
USER_CHARGES


@<TRIPOS>ATOM
      1 O1         22.2170   28.8273  -42.7330 O.3       1 <1>         0.0000 
      2 C2         21.5674   28.4546  -41.5525 C.ar      1 <1>         0.0000 
      3 C3         20.7752   27.3020  -41.4803 C.ar      1 <1>         0.0000 
      4 C4         20.1463   26.9722  -40.2749 C.ar      1 <1>         0.0000 
      5 C5         20.3273   27.8088  -39.1686 C.ar      1 <1>         0.0000 
      6 C6         21.1293   28.9504  -39.2906 C.ar      1 <1>         0.0000 
      7 N7         21.7215   29.2400  -40.4671 N.ar      1 <1>         0.0000 
      8 O8         21.3422   29.8176  -38.2150 O.3       1 <1>         0.0000 
      9 C9         19.2843   25.7320  -40.1670 C.2       1 <1>         0.0000 
     10 O10        19.1378   25.0123  -41.1441 O.2       1 <1>         0.0000 
     11 O11        18.6936   25.4396  -39.0023 O.3       1 <1>         0.0000 
     12 H1         22.0732   28.2348  -43.4624 H         1 <1>         0.0000 
     13 H2         20.6488   26.6681  -42.3516 H         1 <1>         0.0000 
     14 H3         19.8490   27.5732  -38.2239 H         1 <1>         0.0000 
     15 H4         20.9025   29.5604  -37.4123 H         1 <1>         0.0000 
     16 H5         18.1724   24.6438  -39.0266 H         1 <1>         0.0000 
@<TRIPOS>BOND
     1    2    1 1    
     2    2    3 ar   
     3    3    4 ar   
     4    4    5 ar   
     5    5    6 ar   
     6    6    7 ar   
     7    2    7 ar   
     8    6    8 1    
     9    4    9 1    
    10    9   10 2    
    11    9   11 1    
    12    1   12 1    
    13    3   13 1    
    14    5   14 1    
    15    8   15 1    
    16   11   16 1    
@<TRIPOS>SUBSTRUCTURE
     1 ****        2 TEMP              0 ****  ****    0 ROOT 
@<TRIPOS>NORMAL
@<TRIPOS>FF_PBC
FORCE_FIELD_SETUP_FEATURE Force Field Setup information
v1.0  0 0.000000 0.000000 0.000000 0.000000 0.000000 0.000000 NONE 0 0 0 0 0 0 0 0 0 0 0 0 0
