#	Name:			PISM00480
#	Creating user name:	baoopengkun
#	Creation time:		Wed Feb 27 22:08:35 2019

#	Modifying user name:	baoopengkun
#	Modification time:	Wed Feb 27 22:17:22 2019

@<TRIPOS>MOLECULE
PISM00480
   13    13     1     1     0
SMALL
GAST_HUCK


@<TRIPOS>ATOM
      1 C1         27.4105    5.9959   -8.8138 C.2       1 <1>        -0.0920 
      2 C2         26.3194    7.0485   -8.4750 C.3       1 <1>        -0.0118 
      3 C3         27.6542    7.2435   -9.1227 C.2       1 <1>        -0.0704 
      4 C4         28.4197    8.4162   -9.6601 C.3       1 <1>        -0.0321 
      5 H1         27.7383    4.9577   -8.8020 H         1 <1>         0.0307 
      6 C6         26.2276    7.5651   -7.0223 C.3       1 <1>        -0.0569 
      7 H2         25.4634    7.1456   -9.1604 H         1 <1>         0.0364 
      8 H3         29.3880    8.0757  -10.0554 H         1 <1>         0.0417 
      9 H4         28.5912    9.1441   -8.8534 H         1 <1>         0.0417 
     10 H5         27.8447    8.8949  -10.4663 H         1 <1>         0.0417 
     11 H6         27.1335    7.3123   -6.4498 H         1 <1>         0.0237 
     12 H7         25.3559    7.1078   -6.5309 H         1 <1>         0.0237 
     13 H8         26.1032    8.6583   -7.0335 H         1 <1>         0.0237 
@<TRIPOS>BOND
     1    2    1 1    
     2    2    3 1    
     3    1    3 2    
     4    3    4 1    
     5    1    5 1    
     6    2    6 1    
     7    2    7 1    
     8    4    8 1    
     9    4    9 1    
    10    4   10 1    
    11    6   11 1    
    12    6   12 1    
    13    6   13 1    
@<TRIPOS>SUBSTRUCTURE
     1 ****        2 TEMP              0 ****  ****    0 ROOT 
@<TRIPOS>NORMAL
@<TRIPOS>FF_PBC
FORCE_FIELD_SETUP_FEATURE Force Field Setup information
v1.0  0 0.000000 0.000000 0.000000 0.000000 0.000000 0.000000 NONE 0 0 0 0 1 0 0 0 0 0 0 0 0
