#	Name:			PISM00967
#	Creating user name:	baoopengkun
#	Creation time:		Thu Dec 13 10:35:31 2018

#	Modifying user name:	baoopengkun
#	Modification time:	Thu Dec 13 11:10:32 2018

@<TRIPOS>MOLECULE
PISM00967
   41    43     1     1     0
SMALL
GAST_HUCK


@<TRIPOS>ATOM
      1 C1         -8.8907   11.6424   -5.6584 C.ar      1 <1>        -0.0235 
      2 C2         -7.6283   11.8847   -6.2037 C.ar      1 <1>         0.0417 
      3 C3         -7.4423   11.7767   -7.5837 C.ar      1 <1>        -0.0235 
      4 C4         -8.5119   11.4276   -8.4139 C.ar      1 <1>        -0.0352 
      5 C5         -9.7798   11.1657   -7.8770 C.ar      1 <1>        -0.0168 
      6 C6         -9.9553   11.2898   -6.4920 C.ar      1 <1>        -0.0352 
      7 C7        -10.9935   10.7590   -8.7461 C.3       1 <1>         0.0891 
      8 O8        -11.8483    9.8974   -7.9711 O.3       1 <1>        -0.4193 
      9 C9        -10.5976    9.9863  -10.0440 C.3       1 <1>        -0.0344 
     10 C10       -11.7892   12.0533   -9.0737 C.3       1 <1>         0.0833 
     11 N11       -11.9506   12.8856   -7.8891 N.pl3     1 <1>        -0.1834 
     12 N12       -12.9769   12.8349   -6.9942 N.2       1 <1>        -0.1908 
     13 C13       -12.8733   13.7030   -6.0578 C.2       1 <1>         0.0618 
     14 N14       -11.6525   14.3607   -6.4343 N.2       1 <1>        -0.2870 
     15 C15       -11.1859   13.8534   -7.4827 C.2       1 <1>         0.1269 
     16 C16       -11.8041    9.3371  -10.7753 C.3       1 <1>        -0.0236 
     17 C17       -11.2938    8.5529  -11.9933 C.ar      1 <1>        -0.0434 
     18 C18       -11.1302    9.1945  -13.2264 C.ar      1 <1>        -0.0597 
     19 C19       -10.6751    8.4808  -14.3390 C.ar      1 <1>        -0.0546 
     20 C20       -10.3773    7.1207  -14.2236 C.ar      1 <1>         0.0330 
     21 C21       -10.5317    6.4770  -12.9932 C.ar      1 <1>        -0.0546 
     22 C22       -10.9854    7.1922  -11.8810 C.ar      1 <1>        -0.0597 
     23 Cl23       -9.8110    6.2246  -15.6183 Cl        1 <1>        -0.0771 
     24 Br24       -6.2108   12.3476   -5.1044 Br        1 <1>        -0.0236 
     25 H1         -9.0450   11.7295   -4.5875 H         1 <1>         0.0719 
     26 H2         -6.4626   11.9659   -8.0114 H         1 <1>         0.0719 
     27 H3         -8.3308   11.3702   -9.4797 H         1 <1>         0.0854 
     28 H4        -10.9315   11.1201   -6.0474 H         1 <1>         0.0854 
     29 H5        -11.4162    9.0941   -7.6983 H         1 <1>         0.1965 
     30 H6         -9.8917    9.1851   -9.7706 H         1 <1>         0.0222 
     31 H7        -10.1025   10.6534  -10.7662 H         1 <1>         0.0222 
     32 H8        -12.7951   11.7991   -9.4378 H         1 <1>         0.0574 
     33 H9        -11.2720   12.6357   -9.8517 H         1 <1>         0.0574 
     34 H10       -13.5321   13.8899   -5.2113 H         1 <1>         0.0863 
     35 H11       -10.2689   14.1902   -7.9646 H         1 <1>         0.1361 
     36 H12       -12.5157   10.1034  -11.1178 H         1 <1>         0.0420 
     37 H13       -12.3497    8.6551  -10.1049 H         1 <1>         0.0420 
     38 H14       -11.3547   10.2519  -13.3252 H         1 <1>         0.0557 
     39 H15       -10.5522    8.9812  -15.2941 H         1 <1>         0.0606 
     40 H16       -10.2984    5.4210  -12.9035 H         1 <1>         0.0606 
     41 H17       -11.0953    6.6842  -10.9281 H         1 <1>         0.0557 
@<TRIPOS>BOND
     1    2    1 ar   
     2    2    3 ar   
     3    3    4 ar   
     4    4    5 ar   
     5    5    6 ar   
     6    1    6 ar   
     7    5    7 1    
     8    7    8 1    
     9    7    9 1    
    10    7   10 1    
    11   10   11 1    
    12   11   12 1    
    13   12   13 2    
    14   13   14 1    
    15   14   15 2    
    16   11   15 1    
    17    9   16 1    
    18   16   17 1    
    19   17   18 ar   
    20   18   19 ar   
    21   19   20 ar   
    22   20   21 ar   
    23   21   22 ar   
    24   17   22 ar   
    25   20   23 1    
    26    2   24 1    
    27    1   25 1    
    28    3   26 1    
    29    4   27 1    
    30    6   28 1    
    31    8   29 1    
    32    9   30 1    
    33    9   31 1    
    34   10   32 1    
    35   10   33 1    
    36   13   34 1    
    37   15   35 1    
    38   16   36 1    
    39   16   37 1    
    40   18   38 1    
    41   19   39 1    
    42   21   40 1    
    43   22   41 1    
@<TRIPOS>SUBSTRUCTURE
     1 ****        2 TEMP              0 ****  ****    0 ROOT 
@<TRIPOS>NORMAL
@<TRIPOS>FF_PBC
FORCE_FIELD_SETUP_FEATURE Force Field Setup information
v1.0  0 0.000000 0.000000 0.000000 0.000000 0.000000 0.000000 NONE 0 0 0 0 1 0 0 0 0 0 0 0 0
