#	Name:			PISM00681
#	Creating user name:	baoopengkun
#	Creation time:		Sat Jan 12 23:30:28 2019

#	Modifying user name:	baoopengkun
#	Modification time:	Sat Jan 12 23:31:19 2019

@<TRIPOS>MOLECULE
PISM00681
   60    60     1     1     0
SMALL
GAST_HUCK


@<TRIPOS>ATOM
      1 C1         -6.5861  -17.5070   11.1586 C.3       1 <1>        -0.0653 
      2 C2         -6.5218  -16.0456   10.6432 C.3       1 <1>        -0.0559 
      3 C3         -6.1137  -15.9907    9.1454 C.3       1 <1>        -0.0533 
      4 C4         -6.0580  -14.5267    8.6277 C.3       1 <1>        -0.0531 
      5 C5         -5.6458  -14.4704    7.1312 C.3       1 <1>        -0.0531 
      6 C6         -5.6022  -13.0090    6.6055 C.3       1 <1>        -0.0531 
      7 C7         -5.1805  -12.9634    5.1115 C.3       1 <1>        -0.0531 
      8 C8         -5.1479  -11.5064    4.5737 C.3       1 <1>        -0.0531 
      9 C9         -4.7124  -11.4669    3.0831 C.3       1 <1>        -0.0531 
     10 C10        -4.6884  -10.0135    2.5351 C.3       1 <1>        -0.0530 
     11 C11        -4.2289   -9.9771    1.0514 C.3       1 <1>        -0.0519 
     12 C12        -4.2061   -8.5247    0.5005 C.3       1 <1>        -0.0402 
     13 C13        -3.7139   -8.4732   -0.9679 C.3       1 <1>        -0.0009 
     14 N14        -3.7225   -7.0514   -1.3963 N.3       1 <1>        -0.2975 
     15 C15        -4.8024   -6.6700   -2.3358 C.3       1 <1>         0.0250 
     16 C16        -4.8608   -5.1276   -2.4841 C.3       1 <1>         0.0689 
     17 O17        -3.5770   -4.6171   -2.8916 O.3       1 <1>        -0.3714 
     18 C18        -2.5364   -4.9405   -1.9501 C.3       1 <1>         0.0689 
     19 C19        -2.4147   -6.4782   -1.7913 C.3       1 <1>         0.0250 
     20 C20        -1.2127   -4.3265   -2.4694 C.3       1 <1>        -0.0375 
     21 C21        -5.9014   -4.7071   -3.5515 C.3       1 <1>        -0.0375 
     22 H1         -5.6042  -17.9946   11.0564 H         1 <1>         0.0230 
     23 H2         -7.3291  -18.0843   10.5869 H         1 <1>         0.0230 
     24 H3         -6.8747  -17.5210   12.2214 H         1 <1>         0.0230 
     25 H4         -5.7890  -15.4828   11.2456 H         1 <1>         0.0263 
     26 H5         -7.5103  -15.5742   10.7738 H         1 <1>         0.0263 
     27 H6         -6.8444  -16.5609    8.5482 H         1 <1>         0.0265 
     28 H7         -5.1240  -16.4604    9.0203 H         1 <1>         0.0265 
     29 H8         -5.3305  -13.9549    9.2270 H         1 <1>         0.0265 
     30 H9         -7.0488  -14.0591    8.7497 H         1 <1>         0.0265 
     31 H10        -6.3676  -15.0500    6.5326 H         1 <1>         0.0265 
     32 H11        -4.6513  -14.9309    7.0111 H         1 <1>         0.0265 
     33 H12        -4.8844  -12.4256    7.2050 H         1 <1>         0.0265 
     34 H13        -6.5981  -12.5503    6.7178 H         1 <1>         0.0265 
     35 H14        -5.8931  -13.5555    4.5137 H         1 <1>         0.0265 
     36 H15        -4.1804  -13.4146    5.0025 H         1 <1>         0.0265 
     37 H16        -4.4425  -10.9110    5.1762 H         1 <1>         0.0265 
     38 H17        -6.1502  -11.0587    4.6744 H         1 <1>         0.0265 
     39 H18        -5.4121  -12.0700    2.4816 H         1 <1>         0.0265 
     40 H19        -3.7070  -11.9085    2.9868 H         1 <1>         0.0265 
     41 H20        -3.9988   -9.4055    3.1434 H         1 <1>         0.0265 
     42 H21        -5.6965   -9.5751    2.6156 H         1 <1>         0.0265 
     43 H22        -4.9139  -10.5875    0.4399 H         1 <1>         0.0266 
     44 H23        -3.2185  -10.4118    0.9749 H         1 <1>         0.0266 
     45 H24        -3.5343   -7.9030    1.1152 H         1 <1>         0.0278 
     46 H25        -5.2181   -8.0902    0.5518 H         1 <1>         0.0278 
     47 H26        -4.3699   -9.0938   -1.6003 H         1 <1>         0.0427 
     48 H27        -2.7032   -8.9100   -1.0238 H         1 <1>         0.0427 
     49 H28        -5.7742   -7.0332   -1.9638 H         1 <1>         0.0452 
     50 H29        -4.6086   -7.1278   -3.3190 H         1 <1>         0.0452 
     51 H30        -5.1521   -4.6833   -1.5164 H         1 <1>         0.0606 
     52 H31        -2.7677   -4.4933   -0.9674 H         1 <1>         0.0606 
     53 H32        -1.6561   -6.6969   -1.0226 H         1 <1>         0.0452 
     54 H33        -2.0916   -6.9272   -2.7440 H         1 <1>         0.0452 
     55 H34        -1.3151   -3.2332   -2.5495 H         1 <1>         0.0255 
     56 H35        -0.9759   -4.7300   -3.4656 H         1 <1>         0.0255 
     57 H36        -0.3815   -4.5553   -1.7846 H         1 <1>         0.0255 
     58 H37        -5.6149   -5.1079   -4.5358 H         1 <1>         0.0255 
     59 H38        -5.9419   -3.6088   -3.6195 H         1 <1>         0.0255 
     60 H39        -6.9026   -5.0832   -3.2903 H         1 <1>         0.0255 
@<TRIPOS>BOND
     1    2    1 1    
     2    2    3 1    
     3    3    4 1    
     4    4    5 1    
     5    5    6 1    
     6    6    7 1    
     7    7    8 1    
     8    8    9 1    
     9    9   10 1    
    10   10   11 1    
    11   11   12 1    
    12   12   13 1    
    13   13   14 1    
    14   14   15 1    
    15   15   16 1    
    16   16   17 1    
    17   17   18 1    
    18   18   19 1    
    19   14   19 1    
    20   18   20 1    
    21   16   21 1    
    22    1   22 1    
    23    1   23 1    
    24    1   24 1    
    25    2   25 1    
    26    2   26 1    
    27    3   27 1    
    28    3   28 1    
    29    4   29 1    
    30    4   30 1    
    31    5   31 1    
    32    5   32 1    
    33    6   33 1    
    34    6   34 1    
    35    7   35 1    
    36    7   36 1    
    37    8   37 1    
    38    8   38 1    
    39    9   39 1    
    40    9   40 1    
    41   10   41 1    
    42   10   42 1    
    43   11   43 1    
    44   11   44 1    
    45   12   45 1    
    46   12   46 1    
    47   13   47 1    
    48   13   48 1    
    49   15   49 1    
    50   15   50 1    
    51   16   51 1    
    52   18   52 1    
    53   19   53 1    
    54   19   54 1    
    55   20   55 1    
    56   20   56 1    
    57   20   57 1    
    58   21   58 1    
    59   21   59 1    
    60   21   60 1    
@<TRIPOS>SUBSTRUCTURE
     1 ****        2 TEMP              0 ****  ****    0 ROOT 
@<TRIPOS>NORMAL
@<TRIPOS>FF_PBC
FORCE_FIELD_SETUP_FEATURE Force Field Setup information
v1.0  0 0.000000 0.000000 0.000000 0.000000 0.000000 0.000000 NONE 0 0 0 0 1 0 0 0 0 0 0 0 0
