#	Name:			PISM01143
#	Creating user name:	14062
#	Creation time:		Sat Apr 06 10:20:27 2019

#	Modifying user name:	14062
#	Modification time:	Sat Apr 06 10:26:19 2019

@<TRIPOS>MOLECULE
PISM01143
   41    43     2     1     0
SMALL
GAST_HUCK


@<TRIPOS>ATOM
      1 N1          6.8257   -7.5495   10.0574 N.am      1 BENZYL     -0.2205 
      2 S2          5.7844   -8.1799    9.1453 S.o2      1 BENZYL      0.0798 
      3 C2          4.9489   -6.7053    8.6733 C.ar      1 BENZYL      0.1567 
      4 C3          4.8469   -5.6514    9.5844 C.ar      1 BENZYL      0.0960 
      5 C4          4.1624   -4.4954    9.1909 C.ar      1 BENZYL     -0.0116 
      6 C5          3.5916   -4.3822    7.9164 C.ar      1 BENZYL      0.0622 
      7 C6          3.6365   -5.4763    7.0427 C.ar      1 BENZYL      0.1284 
      8 C7          4.3557   -6.6166    7.4129 C.ar      1 BENZYL      0.0118 
      9 N9          5.3896   -5.7373   10.8265 N.pl3     1 BENZYL     -0.2951 
     10 C10         6.4327   -6.7037   11.1775 C.3       1 BENZYL      0.1252 
     11 C11         2.9326   -3.0610    7.4996 C.3       1 BENZYL      0.3751 
     12 S12         2.8472   -5.4472    5.4424 S.o2      1 BENZYL      0.0730 
     13 N13         2.5516   -7.0245    5.1480 N.am      1 BENZYL     -0.2592 
     14 O14         3.8131   -4.9828    4.4672 O.2       1 BENZYL     -0.1484 
     15 O15         1.5607   -4.7919    5.5531 O.2       1 BENZYL     -0.1484 
     16 F16         3.2285   -2.7622    6.2079 F         1 BENZYL     -0.2207 
     17 F17         1.5869   -3.1657    7.6534 F         1 BENZYL     -0.2207 
     18 F18         3.3772   -2.0356    8.2758 F         1 BENZYL     -0.2207 
     19 O19         6.4459   -8.7413    7.9836 O.2       1 BENZYL     -0.1484 
     20 O20         4.8908   -8.9918    9.9458 O.2       1 BENZYL     -0.1484 
     21 C1          7.6496   -5.9142   11.7335 C.3       2 BENZYL      0.0211 
     22 C2          8.7271   -6.8609   12.2833 C.ar      2 BENZYL     -0.0393 
     23 C3          8.5211   -7.5080   13.5074 C.ar      2 BENZYL     -0.0602 
     24 C4          9.4851   -8.3825   14.0172 C.ar      2 BENZYL     -0.0686 
     25 C5         10.6662   -8.6122   13.3066 C.ar      2 BENZYL     -0.0687 
     26 C6         10.8825   -7.9610   12.0890 C.ar      2 BENZYL     -0.0686 
     27 C7          9.9173   -7.0864   11.5811 C.ar      2 BENZYL     -0.0602 
     28 H1          7.7844   -7.8154    9.9506 H         1 BENZYL      0.1700 
     29 H2          4.0762   -3.6709    9.8902 H         1 BENZYL      0.0728 
     30 H3          4.4593   -7.4455    6.7231 H         1 BENZYL      0.0708 
     31 H4          5.0637   -5.0856   11.5596 H         1 BENZYL      0.1778 
     32 H5          6.0302   -7.3597   11.9686 H         1 BENZYL      0.0794 
     33 H6          3.0415   -7.4962    4.4144 H         1 BENZYL      0.1637 
     34 H7          1.8599   -7.5117    5.6810 H         1 BENZYL      0.1637 
     35 H8          8.0500   -5.2804   10.9273 H         2 BENZYL      0.0465 
     36 H9          7.3328   -5.2505   12.5534 H         2 BENZYL      0.0465 
     37 H10         7.6095   -7.3338   14.0701 H         2 BENZYL      0.0557 
     38 H11         9.3169   -8.8836   14.9657 H         2 BENZYL      0.0599 
     39 H12        11.4142   -9.2944   13.6993 H         2 BENZYL      0.0559 
     40 H13        11.8014   -8.1351   11.5373 H         2 BENZYL      0.0599 
     41 H14        10.1006   -6.5851   10.6361 H         2 BENZYL      0.0557 
@<TRIPOS>BOND
     1    2    3 1    
     2    3    4 ar   
     3    3    8 ar   
     4    8    7 ar   
     5    7    6 ar   
     6    5    6 ar   
     7    4    5 ar   
     8    2    1 1    
     9    4    9 1    
    10    9   10 1    
    11    1   10 1    
    12    6   11 1    
    13    7   12 1    
    14   12   13 1    
    15   12   14 2    
    16   12   15 2    
    17   11   16 1    
    18   11   17 1    
    19   11   18 1    
    20    2   19 2    
    21    2   20 2    
    22   21   22 1    
    23   22   23 ar   
    24   22   27 ar   
    25   27   26 ar   
    26   26   25 ar   
    27   25   24 ar   
    28   24   23 ar   
    29   10   21 1    
    30    1   28 1    
    31    5   29 1    
    32    8   30 1    
    33    9   31 1    
    34   10   32 1    
    35   13   33 1    
    36   13   34 1    
    37   21   35 1    
    38   21   36 1    
    39   23   37 1    
    40   24   38 1    
    41   25   39 1    
    42   26   40 1    
    43   27   41 1    
@<TRIPOS>SUBSTRUCTURE
     1 BENZYL      2 PERM              0 ****  ****    1 ROOT 
     2 BENZYL     21 PERM              0 ****  ****    1  
@<TRIPOS>NORMAL
@<TRIPOS>FF_PBC
FORCE_FIELD_SETUP_FEATURE Force Field Setup information
v1.0  0 0.000000 0.000000 0.000000 0.000000 0.000000 0.000000 NONE 0 0 0 0 1 0 0 0 0 0 0 0 0
