#	Name:			PISM01117
#	Creating user name:	Qinrunwen
#	Creation time:		Tue Apr 02 21:08:04 2019

#	Modifying user name:	Qinrunwen
#	Modification time:	Tue Apr 02 21:08:21 2019

@<TRIPOS>MOLECULE
PISM01117
   46    49     1     1     0
SMALL
GAST_HUCK


@<TRIPOS>ATOM
      1 C1         10.9719   18.2191   -7.4520 C.ar      1 <1>        -0.0478 
      2 C2         12.2320   18.3757   -6.8710 C.ar      1 <1>        -0.0623 
      3 C3         13.0643   17.2714   -6.6749 C.ar      1 <1>        -0.0643 
      4 C4         12.6590   15.9942   -7.0761 C.ar      1 <1>        -0.0314 
      5 C5         11.4065   15.8443   -7.6809 C.ar      1 <1>        -0.0643 
      6 C6         10.5673   16.9468   -7.8696 C.ar      1 <1>        -0.0623 
      7 C7         10.0566   19.4363   -7.6201 C.3       1 <1>        -0.0319 
      8 C8         13.5418   14.7789   -6.8781 C.2       1 <1>         0.0022 
      9 C9         14.6304   14.6731   -6.1051 C.2       1 <1>         0.0082 
     10 N10        13.3066   13.5246   -7.5475 N.2       1 <1>        -0.3092 
     11 C11        14.1260   12.5846   -7.3320 C.2       1 <1>         0.2030 
     12 S12        15.3951   13.0484   -6.1727 S.3       1 <1>         0.0197 
     13 N13        14.0883   11.4066   -7.8950 N.pl3     1 <1>        -0.2008 
     14 C14        13.1858   11.0712   -8.7810 C.2       1 <1>         0.2344 
     15 C15        13.2096    9.7120   -9.4551 C.ar      1 <1>         0.0902 
     16 C16        14.1089    8.7214   -9.0445 C.ar      1 <1>         0.1383 
     17 C17        14.1290    7.4829   -9.6967 C.ar      1 <1>        -0.0220 
     18 C18        13.2242    7.2089  -10.7258 C.ar      1 <1>        -0.0650 
     19 C19        12.3253    8.1956  -11.1379 C.ar      1 <1>        -0.0663 
     20 C20        12.3252    9.4410  -10.5070 C.ar      1 <1>        -0.0486 
     21 O21        14.9901    8.9804   -7.9887 O.3       1 <1>        -0.2524 
     22 C22        15.1386    7.9504   -7.0549 C.ar      1 <1>         0.1181 
     23 C23        16.4160    7.5661   -6.6392 C.ar      1 <1>        -0.0280 
     24 C24        16.5768    6.4839   -5.7688 C.ar      1 <1>        -0.0695 
     25 C25        15.4561    5.7858   -5.3103 C.ar      1 <1>        -0.0721 
     26 C26        14.1754    6.1993   -5.6868 C.ar      1 <1>        -0.0695 
     27 C27        14.0154    7.3013   -6.5322 C.ar      1 <1>        -0.0280 
     28 O28        12.2900   11.8262   -9.1206 O.2       1 <1>        -0.3695 
     29 H1         12.5700   19.3609   -6.5682 H         1 <1>         0.0553 
     30 H2         14.0303   17.4283   -6.2117 H         1 <1>         0.0582 
     31 H3         11.0815   14.8596   -8.0042 H         1 <1>         0.0582 
     32 H4          9.5992   16.8125   -8.3412 H         1 <1>         0.0553 
     33 H5         10.2382   19.8884   -8.6063 H         1 <1>         0.0389 
     34 H6         10.2586   20.1857   -6.8402 H         1 <1>         0.0389 
     35 H7          8.9980   19.1415   -7.5437 H         1 <1>         0.0389 
     36 H8         15.0514   15.4574   -5.4778 H         1 <1>         0.0648 
     37 H9         14.8214   10.7279   -7.6450 H         1 <1>         0.2232 
     38 H10        14.8507    6.7243   -9.4121 H         1 <1>         0.0566 
     39 H11        13.2142    6.2342  -11.2057 H         1 <1>         0.0627 
     40 H12        11.6305    7.9983  -11.9483 H         1 <1>         0.0542 
     41 H13        11.6277   10.1989  -10.8481 H         1 <1>         0.0644 
     42 H14        17.2826    8.1091   -6.9998 H         1 <1>         0.0554 
     43 H15        17.5685    6.1828   -5.4495 H         1 <1>         0.0591 
     44 H16        15.5756    4.9231   -4.6609 H         1 <1>         0.0529 
     45 H17        13.3062    5.6629   -5.3212 H         1 <1>         0.0591 
     46 H18        13.0193    7.6523   -6.7837 H         1 <1>         0.0554 
@<TRIPOS>BOND
     1    2    1 ar   
     2    2    3 ar   
     3    3    4 ar   
     4    4    5 ar   
     5    5    6 ar   
     6    1    6 ar   
     7    1    7 1    
     8    4    8 1    
     9    8    9 2    
    10    8   10 1    
    11   10   11 2    
    12   11   12 1    
    13    9   12 1    
    14   11   13 1    
    15   13   14 1    
    16   14   15 1    
    17   15   16 ar   
    18   16   17 ar   
    19   17   18 ar   
    20   18   19 ar   
    21   19   20 ar   
    22   15   20 ar   
    23   16   21 1    
    24   21   22 1    
    25   22   23 ar   
    26   23   24 ar   
    27   24   25 ar   
    28   25   26 ar   
    29   26   27 ar   
    30   22   27 ar   
    31   14   28 2    
    32    2   29 1    
    33    3   30 1    
    34    5   31 1    
    35    6   32 1    
    36    7   33 1    
    37    7   34 1    
    38    7   35 1    
    39    9   36 1    
    40   13   37 1    
    41   17   38 1    
    42   18   39 1    
    43   19   40 1    
    44   20   41 1    
    45   23   42 1    
    46   24   43 1    
    47   25   44 1    
    48   26   45 1    
    49   27   46 1    
@<TRIPOS>SUBSTRUCTURE
     1 ****        2 TEMP              0 ****  ****    0 ROOT 
@<TRIPOS>NORMAL
@<TRIPOS>FF_PBC
FORCE_FIELD_SETUP_FEATURE Force Field Setup information
v1.0  0 0.000000 0.000000 0.000000 0.000000 0.000000 0.000000 NONE 0 0 0 0 1 0 0 0 0 0 0 0 0
