#	Name:			PISM00799
#	Creating user name:	baoopengkun
#	Creation time:		Sat Dec 15 02:12:16 2018

#	Modifying user name:	baoopengkun
#	Modification time:	Sat Dec 15 02:14:02 2018

@<TRIPOS>MOLECULE
PISM00799
   36    38     1     1     0
SMALL
GAST_HUCK


@<TRIPOS>ATOM
      1 C1          3.1809    9.9378  -48.9092 C.3       1 <1>        -0.0153 
      2 C2          4.0709    9.0875  -49.8532 C.3       1 <1>        -0.0314 
      3 C3          4.7624    9.9713  -50.9198 C.3       1 <1>         0.0014 
      4 S4          6.0589   10.9754  -50.1295 S.3       1 <1>        -0.1312 
      5 C5          5.0749   11.6166  -48.7882 C.2       1 <1>         0.0367 
      6 C6          3.9116   11.1305  -48.3430 C.2       1 <1>        -0.0346 
      7 C7          3.3096   11.8907  -47.1748 C.3       1 <1>         0.0169 
      8 C8          3.2874   11.0543  -45.8687 C.3       1 <1>        -0.0459 
      9 C9          4.3080   13.0172  -47.0646 C.2       1 <1>         0.0303 
     10 C10         5.4161   12.7933  -47.9913 C.2       1 <1>         0.1059 
     11 O11         6.4238   13.4757  -48.0764 O.2       1 <1>        -0.4199 
     12 C12         4.1984   14.0719  -46.2506 C.2       1 <1>         0.0846 
     13 O13         3.1275   14.1816  -45.4509 O.3       1 <1>        -0.2656 
     14 C14         3.1497   15.3408  -44.6001 C.3       1 <1>         0.2404 
     15 C15         4.3221   15.3212  -43.6480 C.2       1 <1>        -0.0006 
     16 C16         5.0593   16.4197  -43.8029 C.2       1 <1>         0.0293 
     17 C17         4.3728   17.1500  -44.8636 C.2       1 <1>         0.2496 
     18 O18         3.2916   16.5587  -45.3587 O.3       1 <1>        -0.2302 
     19 C19         6.3153   16.8145  -43.0757 C.3       1 <1>        -0.0323 
     20 O20         4.7634   18.2285  -45.2749 O.2       1 <1>        -0.3691 
     21 H1          2.8170    9.2813  -48.1046 H         1 <1>         0.0455 
     22 H2          2.3074   10.3183  -49.4620 H         1 <1>         0.0455 
     23 H3          3.4419    8.3310  -50.3524 H         1 <1>         0.0300 
     24 H4          4.8430    8.5587  -49.2697 H         1 <1>         0.0300 
     25 H5          4.0351   10.6296  -51.4203 H         1 <1>         0.0393 
     26 H6          5.2518    9.3426  -51.6804 H         1 <1>         0.0393 
     27 H7          2.3115   12.2838  -47.4274 H         1 <1>         0.0583 
     28 H8          3.0071   11.6825  -45.0103 H         1 <1>         0.0274 
     29 H9          4.2837   10.6258  -45.6785 H         1 <1>         0.0274 
     30 H10         2.5559   10.2362  -45.9374 H         1 <1>         0.0274 
     31 H11         5.0096   14.8028  -46.2912 H         1 <1>         0.1146 
     32 H12         2.2089   15.3768  -44.0275 H         1 <1>         0.1214 
     33 H13         4.5280   14.5193  -42.9402 H         1 <1>         0.0706 
     34 H14         6.8534   15.9231  -42.7196 H         1 <1>         0.0347 
     35 H15         6.0553   17.4475  -42.2146 H         1 <1>         0.0347 
     36 H16         6.9739   17.3809  -43.7513 H         1 <1>         0.0347 
@<TRIPOS>BOND
     1    2    1 1    
     2    2    3 1    
     3    3    4 1    
     4    4    5 1    
     5    5    6 2    
     6    1    6 1    
     7    6    7 1    
     8    7    8 1    
     9    7    9 1    
    10    9   10 1    
    11    5   10 1    
    12   10   11 2    
    13    9   12 2    
    14   12   13 1    
    15   13   14 1    
    16   14   15 1    
    17   15   16 2    
    18   16   17 1    
    19   17   18 1    
    20   14   18 1    
    21   16   19 1    
    22   17   20 2    
    23    1   21 1    
    24    1   22 1    
    25    2   23 1    
    26    2   24 1    
    27    3   25 1    
    28    3   26 1    
    29    7   27 1    
    30    8   28 1    
    31    8   29 1    
    32    8   30 1    
    33   12   31 1    
    34   14   32 1    
    35   15   33 1    
    36   19   34 1    
    37   19   35 1    
    38   19   36 1    
@<TRIPOS>SUBSTRUCTURE
     1 ****        2 TEMP              0 ****  ****    0 ROOT 
@<TRIPOS>NORMAL
@<TRIPOS>FF_PBC
FORCE_FIELD_SETUP_FEATURE Force Field Setup information
v1.0  0 0.000000 0.000000 0.000000 0.000000 0.000000 0.000000 NONE 0 0 0 0 1 0 0 0 0 0 0 0 0
