#	Name:			PISM00023
#	Creating user name:	baoopengkun
#	Creation time:		Sat Nov 17 16:58:46 2018

#	Modifying user name:	baoopengkun
#	Modification time:	Sat Nov 17 17:05:43 2018

@<TRIPOS>MOLECULE
PISM00023
   47    50     1     2     0
SMALL
GAST_HUCK


@<TRIPOS>ATOM
      1 C1         -3.1257   -0.6270    3.9732 C.ar      1 <1>         0.0646 
      2 C2         -2.9010   -1.1230    2.6847 C.ar      1 <1>        -0.0415 
      3 C3         -3.9746   -1.5061    1.8761 C.ar      1 <1>        -0.0756 
      4 C4         -5.2824   -1.3950    2.3562 C.ar      1 <1>        -0.0773 
      5 C5         -5.5141   -0.8656    3.6287 C.ar      1 <1>        -0.0756 
      6 C6         -4.4400   -0.4457    4.4188 C.ar      1 <1>        -0.0415 
      7 N7         -2.0178   -0.3095    4.8059 N.am      1 <1>        -0.2415 
      8 C8         -1.9661   -0.6122    6.1224 C.2       1 <1>         0.1971 
      9 O9         -1.0214   -0.2327    6.7947 O.2       1 <1>        -0.4005 
     10 C10        -3.0152   -1.3730    6.8249 C.2       1 <1>         0.0897 
     11 C11        -3.7045   -2.4876    6.5291 C.2       1 <1>         0.2263 
     12 N12        -4.5882   -2.6754    7.4785 N.pl3     1 <1>        -0.1352 
     13 N13        -4.4790   -1.7040    8.4073 N.2       1 <1>        -0.2247 
     14 C14        -3.5463   -0.9041    8.1087 C.2       1 <1>        -0.0056 
     15 N15        -3.5804   -3.3062    5.4522 N.am      1 <1>        -0.1941 
     16 C16        -2.5243   -3.3991    4.6144 C.2       1 <1>         0.2417 
     17 C17        -2.5800   -4.2171    3.3370 C.ar      1 <1>         0.0577 
     18 C18        -5.4688   -3.6991    7.5659 C.ar      1 <1>         0.1101 
     19 C19        -1.3843   -4.7041    2.7945 C.ar      1 <1>        -0.0413 
     20 C20        -1.3882   -5.4731    1.6272 C.ar      1 <1>        -0.0562 
     21 C21        -2.5953   -5.7664    0.9883 C.ar      1 <1>        -0.0576 
     22 C22        -3.7927   -5.2744    1.5134 C.ar      1 <1>        -0.0562 
     23 C23        -3.7829   -4.4919    2.6719 C.ar      1 <1>        -0.0413 
     24 O24        -1.4691   -2.8478    4.8689 O.2       1 <1>        -0.3692 
     25 C25        -5.0301   -5.0270    7.5230 C.ar      1 <1>        -0.0272 
     26 C26        -5.9563   -6.0732    7.5665 C.ar      1 <1>        -0.0668 
     27 C27        -7.3206   -5.7933    7.6867 C.ar      1 <1>        -0.0696 
     28 C28        -7.7576   -4.4681    7.7708 C.ar      1 <1>        -0.0668 
     29 C29        -6.8307   -3.4230    7.7151 C.ar      1 <1>        -0.0272 
     30 H1         -1.8858   -1.2196    2.3139 H         1 <1>         0.0502 
     31 H2         -3.7924   -1.8935    0.8782 H         1 <1>         0.0577 
     32 H3         -6.1165   -1.7176    1.7405 H         1 <1>         0.0487 
     33 H4         -6.5298   -0.7759    4.0019 H         1 <1>         0.0577 
     34 H5         -4.6374    0.0303    5.3731 H         1 <1>         0.0502 
     35 H6         -1.2098    0.1313    4.4158 H         1 <1>         0.2235 
     36 H7         -3.2142   -0.0387    8.6806 H         1 <1>         0.0645 
     37 H8         -4.3312   -3.9351    5.2830 H         1 <1>         0.2381 
     38 H9         -0.4379   -4.4886    3.2810 H         1 <1>         0.0669 
     39 H10        -0.4533   -5.8436    1.2170 H         1 <1>         0.0629 
     40 H11        -2.6025   -6.3727    0.0874 H         1 <1>         0.0652 
     41 H12        -4.7325   -5.4987    1.0173 H         1 <1>         0.0629 
     42 H13        -4.7257   -4.0957    3.0308 H         1 <1>         0.0669 
     43 H14        -3.9688   -5.2468    7.4617 H         1 <1>         0.0577 
     44 H15        -5.6163   -7.1030    7.5094 H         1 <1>         0.0598 
     45 H16        -8.0410   -6.6053    7.7168 H         1 <1>         0.0551 
     46 H17        -8.8159   -4.2504    7.8791 H         1 <1>         0.0598 
     47 H18        -7.1655   -2.3930    7.7846 H         1 <1>         0.0577 
@<TRIPOS>BOND
     1    2    1 ar   
     2    2    3 ar   
     3    3    4 ar   
     4    4    5 ar   
     5    6    5 ar   
     6    1    6 ar   
     7    1    7 1    
     8    7    8 am   
     9    8    9 2    
    10    8   10 1    
    11   10   11 2    
    12   11   12 1    
    13   13   12 1    
    14   14   13 2    
    15   10   14 1    
    16   11   15 am   
    17   15   16 am   
    18   16   17 1    
    19   17   19 ar   
    20   12   18 1    
    21   19   20 ar   
    22   20   21 ar   
    23   21   22 ar   
    24   22   23 ar   
    25   17   23 ar   
    26   16   24 2    
    27   18   25 ar   
    28   25   26 ar   
    29   26   27 ar   
    30   27   28 ar   
    31   28   29 ar   
    32   18   29 ar   
    33    2   30 1    
    34    3   31 1    
    35    4   32 1    
    36    5   33 1    
    37    6   34 1    
    38    7   35 1    
    39   14   36 1    
    40   15   37 1    
    41   19   38 1    
    42   20   39 1    
    43   21   40 1    
    44   22   41 1    
    45   23   42 1    
    46   25   43 1    
    47   26   44 1    
    48   27   45 1    
    49   28   46 1    
    50   29   47 1    
@<TRIPOS>SUBSTRUCTURE
     1 ****        2 TEMP              0 ****  ****    0 ROOT 
@<TRIPOS>NORMAL
@<TRIPOS>FF_PBC
FORCE_FIELD_SETUP_FEATURE Force Field Setup information
v1.0  0 0.000000 0.000000 0.000000 0.000000 0.000000 0.000000 NONE 0 0 0 0 1 0 0 0 0 0 0 0 0
@<TRIPOS>RENDERING_ATTRS
ANTIALIASED_LINES 
*
