#	Name:			PISM01032
#	Creating user name:	14062
#	Creation time:		Sat Oct 19 23:50:29 2019

#	Modifying user name:	14062
#	Modification time:	Sun Oct 20 00:14:18 2019

@<TRIPOS>MOLECULE
PISM01032
   30    31     3     1     0
SMALL
GAST_HUCK


@<TRIPOS>ATOM
      1 H1          2.8222   -0.3059   -3.6095 H         1 BENZYL      0.2087 
      2 N2          3.4393    0.5180   -3.5176 N.pl3     1 BENZYL     -0.2737 
      3 C2          4.3616    0.7759   -4.4810 C.ar      1 BENZYL      0.0792 
      4 C3          4.1566    0.3410   -5.7990 C.ar      1 BENZYL      0.0827 
      5 C4          5.0922    0.6562   -6.7917 C.ar      1 BENZYL     -0.0510 
      6 C5          6.2370    1.3935   -6.4798 C.ar      1 BENZYL     -0.0682 
      7 C6          6.4584    1.8039   -5.1638 C.ar      1 BENZYL     -0.0678 
      8 C7          5.5317    1.4813   -4.1690 C.ar      1 BENZYL     -0.0337 
      9 O9          2.0603   -0.8290   -5.2168 O.3       1 BENZYL     -0.2955 
     10 C10         2.9274   -0.4645   -6.1659 C.2       1 BENZYL      0.2529 
     11 O11         2.7278   -0.7839   -7.3275 O.2       1 BENZYL     -0.3646 
     12 Cl12        3.1750    5.2299   -1.4886 Cl        3 NO         -0.0807 
     13 H2          4.9345    0.3293   -7.8149 H         1 BENZYL      0.0639 
     14 C2          3.3121    1.3011   -2.4196 C.ar      2 BENZYL      0.0627 
     15 C3          3.1442    2.6889   -2.5351 C.ar      2 BENZYL     -0.0085 
     16 C4          3.1980    3.4798   -1.3799 C.ar      2 BENZYL      0.0314 
     17 C5          3.2723    2.8831   -0.1183 C.ar      2 BENZYL     -0.0667 
     18 C6          3.3244    1.4923   -0.0022 C.ar      2 BENZYL     -0.0784 
     19 C7          3.3527    0.7046   -1.1554 C.ar      2 BENZYL     -0.0455 
     20 H3          6.9526    1.6453   -7.2569 H         1 BENZYL      0.0526 
     21 H4          7.3501    2.3713   -4.9144 H         1 BENZYL      0.0622 
     22 H5          5.7372    1.7846   -3.1475 H         1 BENZYL      0.0541 
     23 H6          1.3342   -1.3243   -5.5831 H         1 BENZYL      0.2519 
     24 H7          3.2884    3.5026    0.7726 H         2 BENZYL      0.0503 
     25 C25         2.8900    3.3452   -3.9012 C.3       2 BENZYL     -0.0331 
     26 H8          3.3473    1.0266    0.9785 H         2 BENZYL      0.0529 
     27 H9          3.4139   -0.3754   -1.0686 H         2 BENZYL      0.0512 
     28 H10         3.8347    3.7472   -4.2960 H         2 BENZYL      0.0369 
     29 H11         2.1650    4.1668   -3.8052 H         2 BENZYL      0.0369 
     30 H12         2.4712    2.6282   -4.6225 H         2 BENZYL      0.0369 
@<TRIPOS>BOND
     1    2    3 1    
     2    3    4 ar   
     3    3    8 ar   
     4    8    7 ar   
     5    7    6 ar   
     6    5    6 ar   
     7    4    5 ar   
     8    2    1 1    
     9    5   13 1    
    10   10    9 1    
    11    4   10 1    
    12   10   11 2    
    13    6   20 1    
    14   14    2 1    
    15   14   15 ar   
    16   14   19 ar   
    17   19   18 ar   
    18   18   17 ar   
    19   17   16 ar   
    20   16   15 ar   
    21   16   12 1    
    22    7   21 1    
    23    8   22 1    
    24    9   23 1    
    25   17   24 1    
    26   18   26 1    
    27   15   25 1    
    28   19   27 1    
    29   25   28 1    
    30   25   29 1    
    31   25   30 1    
@<TRIPOS>SUBSTRUCTURE
     1 BENZYL      2 PERM              0 ****  ****    1  
     2 BENZYL     14 PERM              0 ****  ****    2 ROOT 
     3 NO         12 PERM              0 ****  ****    1  
@<TRIPOS>NORMAL
@<TRIPOS>FF_PBC
FORCE_FIELD_SETUP_FEATURE Force Field Setup information
v1.0  0 0.000000 0.000000 0.000000 0.000000 0.000000 0.000000 NONE 0 0 0 0 1 0 0 0 0 0 0 0 0
