#	Name:			M00655
#	Creating user name:	XiyangLee
#	Creation time:		Tue Aug 31 18:19:20 2021

#	Modifying user name:	XiyangLee
#	Modification time:	Tue Aug 31 18:20:12 2021

@<TRIPOS>MOLECULE
M00655
   24    24     1     1     1
SMALL
GAST_HUCK
****
From 3DB ct
@<TRIPOS>ATOM
      1 Cl          2.5957   -6.1239   -0.1510 Cl        1 <1>        -0.0541 
      2 C           2.6124   -4.3796   -0.0062 C.ar      1 <1>         0.1011 
      3 N           3.7345   -3.7579    0.4097 N.ar      1 <1>        -0.2981 
      4 C           3.7900   -2.4166    0.5525 C.ar      1 <1>         0.0285 
      5 H           4.7013   -1.9772    0.9403 H         1 <1>         0.0700 
      6 C           2.6888   -1.6170    0.2215 C.ar      1 <1>         0.0913 
      7 N           2.7387   -0.1983    0.3244 N.am      1 <1>        -0.2284 
      8 H           1.9187    0.2897    0.6244 H         1 <1>         0.2273 
      9 C           3.8409    0.5101   -0.0126 C.2       1 <1>         0.2072 
     10 O           4.8532   -0.0073   -0.4518 O.2       1 <1>        -0.3842 
     11 C           3.8143    2.0107    0.1475 C.3       1 <1>         0.0615 
     12 H           3.5961    2.2470    1.2010 H         1 <1>         0.0534 
     13 H           3.0059    2.4160   -0.4814 H         1 <1>         0.0534 
     14 C           5.1608    2.6649   -0.2599 C.3       1 <1>         0.0658 
     15 H           5.3834    2.4425   -1.3154 H         1 <1>         0.0543 
     16 H           5.9763    2.2664    0.3639 H         1 <1>         0.0543 
     17 C           5.1187    4.1592   -0.0887 C.2       1 <1>         0.2335 
     18 O           6.2376    4.8097   -0.4053 O.3       1 <1>        -0.2926 
     19 H           6.1369    5.7461   -0.2726 H         1 <1>         0.2539 
     20 O           4.1217    4.7364    0.3145 O.2       1 <1>        -0.3704 
     21 C           1.5140   -2.2441   -0.2056 C.ar      1 <1>        -0.0232 
     22 H           0.6382   -1.6533   -0.4526 H         1 <1>         0.0616 
     23 C           1.4719   -3.6361   -0.3184 C.ar      1 <1>        -0.0314 
     24 H           0.5666   -4.1366   -0.6454 H         1 <1>         0.0653 
@<TRIPOS>BOND
     1    1    2 1    
     2    2    3 ar   
     3    3    4 ar   
     4    4    5 1    
     5    4    6 ar   
     6    6    7 1    
     7    7    8 1    
     8    7    9 am   
     9    9   10 2    
    10    9   11 1    
    11   11   12 1    
    12   11   13 1    
    13   11   14 1    
    14   14   15 1    
    15   14   16 1    
    16   14   17 1    
    17   17   18 1    
    18   18   19 1    
    19   17   20 2    
    20    6   21 ar   
    21   21   22 1    
    22   21   23 ar   
    23   23   24 1    
    24   23    2 ar   
@<TRIPOS>SUBSTRUCTURE
     1 ****        1 TEMP              0 ****  ****    0 ROOT 
@<TRIPOS>SET
UNITY_3DHIT     STATIC     ATOMS    <user>   **** Atoms matching 3D or FLEX Search
0
@<TRIPOS>NORMAL
@<TRIPOS>FF_PBC
FORCE_FIELD_SETUP_FEATURE Force Field Setup information
v1.0  0 0.000000 0.000000 0.000000 0.000000 0.000000 0.000000 NONE 0 0 0 0 1 0 0 0 0 0 0 0 0
