#	Name:			PISM00255
#	Creating user name:	14062
#	Creation time:		Fri Apr 05 23:23:47 2019

#	Modifying user name:	14062
#	Modification time:	Fri Apr 05 23:30:29 2019

@<TRIPOS>MOLECULE
PISM00255
   25    25     1     2     0
SMALL
GAST_HUCK


@<TRIPOS>ATOM
      1 Cl1         5.7864    0.2709    4.6146 Cl        1 BENZYL     -0.0937 
      2 O2         -0.0937    0.7302    3.9161 O.3       1 BENZYL     -0.2993 
      3 C2          1.2850    0.6096    4.0763 C.ar      1 BENZYL      0.0817 
      4 C3          2.0907    0.2740    2.9870 C.ar      1 BENZYL     -0.0383 
      5 C4          3.4724    0.1280    3.1478 C.ar      1 BENZYL     -0.0474 
      6 C5          4.0473    0.3759    4.4024 C.ar      1 BENZYL      0.0295 
      7 C6          3.2432    0.7140    5.4986 C.ar      1 BENZYL     -0.0474 
      8 C7          1.8590    0.8279    5.3290 C.ar      1 BENZYL     -0.0383 
      9 H1          1.6335    0.1301    2.0144 H         1 BENZYL      0.0424 
     10 H2          1.2149    1.0867    6.1634 H         1 BENZYL      0.0424 
     11 C11        -0.7819   -0.5299    3.8123 C.3       1 BENZYL      0.1699 
     12 C12        -2.2612   -0.2822    3.6958 C.2       1 BENZYL      0.2624 
     13 O13        -2.8637    0.1940    4.7871 O.3       1 BENZYL     -0.2907 
     14 H3         -0.5998   -1.1444    4.7079 H         1 BENZYL      0.0876 
     15 H4         -0.4509   -1.0860    2.9217 H         1 BENZYL      0.0876 
     16 H5         -3.7855    0.3529    4.6223 H         1 BENZYL      0.2540 
     17 H6          4.4083    0.0466    7.1950 H         1 BENZYL      0.0390 
     18 H7          3.1276    1.2088    7.6395 H         1 BENZYL      0.0390 
     19 H8          4.5954    1.7890    6.8065 H         1 BENZYL      0.0390 
     20 C20         3.8782    0.9571    6.8748 C.3       1 BENZYL     -0.0345 
     21 O21        -2.8743   -0.5019    2.6633 O.2       1 BENZYL     -0.3676 
     22 C22         4.3116   -0.2988    1.9345 C.3       1 BENZYL     -0.0345 
     23 H9          3.7230   -0.9586    1.2784 H         1 BENZYL      0.0390 
     24 H10         5.2182   -0.8468    2.2288 H         1 BENZYL      0.0390 
     25 H11         4.5978    0.6021    1.3719 H         1 BENZYL      0.0390 
@<TRIPOS>BOND
     1    2    3 1    
     2    3    4 ar   
     3    3    8 ar   
     4    8    7 ar   
     5    7    6 ar   
     6    5    6 ar   
     7    4    5 ar   
     8    6    1 1    
     9    4    9 1    
    10    8   10 1    
    11    2   11 1    
    12   11   12 1    
    13   12   13 1    
    14   11   14 1    
    15   11   15 1    
    16   13   16 1    
    17   20   17 1    
    18   20   18 1    
    19   20   19 1    
    20   22   23 1    
    21   22   24 1    
    22   12   21 2    
    23    7   20 1    
    24    5   22 1    
    25   22   25 1    
@<TRIPOS>SUBSTRUCTURE
     1 BENZYL      2 PERM              0 ****  ****    0 ROOT 
@<TRIPOS>NORMAL
@<TRIPOS>FF_PBC
FORCE_FIELD_SETUP_FEATURE Force Field Setup information
v1.0  0 0.000000 0.000000 0.000000 0.000000 0.000000 0.000000 NONE 0 0 0 0 1 0 0 0 0 0 0 0 0
@<TRIPOS>RENDERING_ATTRS
ANTIALIASED_LINES 
1,2,3,4,5,6,7,8,11,12,13,21,22
