#	Name:			PISM00068
#	Creating user name:	baoopengkun
#	Creation time:		Thu Dec 27 11:33:00 2018

#	Modifying user name:	baoopengkun
#	Modification time:	Thu Dec 27 11:36:25 2018

@<TRIPOS>MOLECULE
PISM00068
   40    41     1     1     0
SMALL
GAST_HUCK


@<TRIPOS>ATOM
      1 C1        -13.7496   11.3496   -3.9910 C.3       1 <1>        -0.0475 
      2 C2        -13.2155   12.6636   -4.6191 C.3       1 <1>         0.0398 
      3 C3        -13.8207   13.9025   -3.9992 C.2       1 <1>         0.2002 
      4 O4        -14.6287   13.7663   -3.0955 O.2       1 <1>        -0.3795 
      5 N5        -13.4467   15.0719   -4.4492 N.pl3     1 <1>        -0.2421 
      6 C6        -13.9488   16.2282   -3.9493 C.ar      1 <1>         0.0515 
      7 C7        -15.3237   16.3956   -3.7447 C.ar      1 <1>        -0.0515 
      8 C8        -15.8161   17.5819   -3.1931 C.ar      1 <1>        -0.0815 
      9 C9        -14.9383   18.6196   -2.8689 C.ar      1 <1>        -0.0505 
     10 C10       -13.5682   18.4783   -3.1101 C.ar      1 <1>         0.0558 
     11 C11       -13.0801   17.2814   -3.6430 C.ar      1 <1>        -0.0179 
     12 N12       -12.7093   19.4840   -2.8180 N.pl3     1 <1>        -0.2370 
     13 C13       -12.7763   20.6517   -3.4109 C.2       1 <1>         0.1865 
     14 S14       -13.9671   20.8965   -4.6279 S.2       1 <1>        -0.2688 
     15 N15       -11.9091   21.6432   -3.0739 N.am      1 <1>        -0.1920 
     16 C16       -11.8677   22.9005   -3.5807 C.2       1 <1>         0.2388 
     17 O17       -12.6720   23.3137   -4.3975 O.2       1 <1>        -0.3712 
     18 C18       -10.8062   23.8920   -3.1424 C.ar      1 <1>         0.0534 
     19 C19        -9.5066   23.4908   -2.8057 C.ar      1 <1>        -0.0431 
     20 C20        -8.5738   24.4263   -2.3467 C.ar      1 <1>        -0.0223 
     21 C21        -8.9176   25.7772   -2.2632 C.ar      1 <1>         0.1376 
     22 C22       -10.1961   26.1919   -2.6418 C.ar      1 <1>        -0.0223 
     23 C23       -11.1336   25.2522   -3.0809 C.ar      1 <1>        -0.0431 
     24 H24       -12.1250   25.5864   -3.3723 H         1 <1>         0.0660 
     25 H1        -14.8412   11.2817   -4.1206 H         1 <1>         0.0255 
     26 H2        -13.5184   11.3205   -2.9145 H         1 <1>         0.0255 
     27 H3        -13.2827   10.4771   -4.4748 H         1 <1>         0.0255 
     28 H4        -13.4433   12.6656   -5.6969 H         1 <1>         0.0508 
     29 H5        -12.1223   12.7048   -4.4896 H         1 <1>         0.0508 
     30 H6        -12.7343   15.1264   -5.1918 H         1 <1>         0.2106 
     31 H7        -16.0193   15.6097   -4.0201 H         1 <1>         0.0435 
     32 H8        -16.8813   17.6977   -3.0174 H         1 <1>         0.0558 
     33 H9        -15.3211   19.5340   -2.4268 H         1 <1>         0.0436 
     34 H10       -12.0153   17.1711   -3.8178 H         1 <1>         0.0439 
     35 H11       -11.9821   19.2970   -2.1137 H         1 <1>         0.2183 
     36 H12       -11.2438   21.4438   -2.3618 H         1 <1>         0.2371 
     37 H13        -9.2005   22.4551   -2.9068 H         1 <1>         0.0660 
     38 H14        -7.5773   24.1098   -2.0560 H         1 <1>         0.0616 
     39 F39        -8.0296   26.6659   -1.8257 F         1 <1>        -0.1794 
     40 H16       -10.4560   27.2443   -2.5915 H         1 <1>         0.0616 
@<TRIPOS>BOND
     1    2    1 1    
     2    2    3 1    
     3    3    4 2    
     4    3    5 1    
     5    5    6 1    
     6    6    7 ar   
     7    7    8 ar   
     8    8    9 ar   
     9    9   10 ar   
    10   10   11 ar   
    11    6   11 ar   
    12   10   12 1    
    13   12   13 1    
    14   13   14 2    
    15   13   15 am   
    16   15   16 am   
    17   16   17 2    
    18   16   18 1    
    19   18   19 ar   
    20   19   20 ar   
    21   20   21 ar   
    22   21   22 ar   
    23   22   23 ar   
    24   18   23 ar   
    25   23   24 1    
    26    1   25 1    
    27    1   26 1    
    28    1   27 1    
    29    2   28 1    
    30    2   29 1    
    31    5   30 1    
    32    7   31 1    
    33    8   32 1    
    34    9   33 1    
    35   11   34 1    
    36   12   35 1    
    37   15   36 1    
    38   19   37 1    
    39   20   38 1    
    40   21   39 1    
    41   22   40 1    
@<TRIPOS>SUBSTRUCTURE
     1 ****        2 TEMP              0 ****  ****    0 ROOT 
@<TRIPOS>NORMAL
@<TRIPOS>FF_PBC
FORCE_FIELD_SETUP_FEATURE Force Field Setup information
v1.0  0 0.000000 0.000000 0.000000 0.000000 0.000000 0.000000 NONE 0 0 0 0 1 0 0 0 0 0 0 0 0
