#	Name:			PISM00519
#	Creating user name:	malab
#	Creation time:		Fri Apr 05 22:33:28 2019

#	Modifying user name:	malab
#	Modification time:	Fri Apr 05 22:33:55 2019

@<TRIPOS>MOLECULE
PISM00519
   52    52     1     1     0
SMALL
GAST_HUCK


@<TRIPOS>ATOM
      1 C1         18.8693    5.6897    0.7068 C.2       1 <1>         0.1101 
      2 C2         20.2076    5.7357    1.3901 C.3       1 <1>         0.0221 
      3 C3         20.8441    6.9993    0.7628 C.3       1 <1>        -0.0297 
      4 C4         20.1638    7.0894   -0.6263 C.3       1 <1>        -0.0019 
      5 C5         18.6683    6.7483   -0.3468 C.3       1 <1>         0.0440 
      6 O6         18.0237    4.8506    0.9717 O.2       1 <1>        -0.3911 
      7 C7         17.7603    7.8567    0.2675 C.3       1 <1>        -0.0173 
      8 C8         17.2370    8.8809   -0.7151 C.2       1 <1>        -0.0961 
      9 C9         16.1512    8.7396   -1.4914 C.2       1 <1>        -0.0988 
     10 C10        15.2531    7.5243   -1.5397 C.3       1 <1>        -0.0393 
     11 C11        14.5806    7.3870   -2.9306 C.3       1 <1>        -0.0586 
     12 C12        20.4538    8.4244   -1.3593 C.3       1 <1>         0.0428 
     13 C13        19.9317    8.3870   -2.7784 C.2       1 <1>         0.1788 
     14 O14        18.8081    8.8116   -2.9932 O.2       1 <1>        -0.3969 
     15 N15        20.7303    7.8749   -3.7494 N.am      1 <1>        -0.2640 
     16 C16        20.3038    7.8124   -5.1521 C.3       1 <1>         0.1445 
     17 C17        19.5289    9.0422   -5.5726 C.2       1 <1>         0.2573 
     18 O18        18.5989    8.8629   -6.5188 O.3       1 <1>        -0.2910 
     19 O19        19.7588   10.1347   -5.0755 O.2       1 <1>        -0.3680 
     20 C20        19.5973    6.4546   -5.4620 C.3       1 <1>        -0.0023 
     21 C21        18.2850    6.2930   -4.6392 C.3       1 <1>        -0.0490 
     22 C22        17.4348    5.0580   -5.0389 C.3       1 <1>        -0.0648 
     23 C23        20.5805    5.2747   -5.2098 C.3       1 <1>        -0.0581 
     24 H1         20.7709    4.8303    1.1133 H         1 <1>         0.0494 
     25 H2         20.1237    5.8000    2.4869 H         1 <1>         0.0494 
     26 H3         21.9419    6.9257    0.6968 H         1 <1>         0.0296 
     27 H4         20.5945    7.8878    1.3641 H         1 <1>         0.0296 
     28 H5         20.5896    6.2764   -1.2436 H         1 <1>         0.0356 
     29 H6         18.1894    6.3116   -1.2340 H         1 <1>         0.0554 
     30 H7         18.2817    8.3793    1.0827 H         1 <1>         0.0416 
     31 H8         16.8831    7.3714    0.7240 H         1 <1>         0.0416 
     32 H9         17.7716    9.8282   -0.7952 H         1 <1>         0.0452 
     33 H10        15.8833    9.5767   -2.1389 H         1 <1>         0.0450 
     34 H11        14.4720    7.6418   -0.7717 H         1 <1>         0.0385 
     35 H12        15.8061    6.5966   -1.3316 H         1 <1>         0.0385 
     36 H13        13.9595    8.2701   -3.1503 H         1 <1>         0.0249 
     37 H14        13.9383    6.4924   -2.9604 H         1 <1>         0.0249 
     38 H15        15.3486    7.2952   -3.7127 H         1 <1>         0.0249 
     39 H16        21.5437    8.5812   -1.3850 H         1 <1>         0.0507 
     40 H17        20.0363    9.2693   -0.7971 H         1 <1>         0.0507 
     41 H18        21.6349    7.5053   -3.5228 H         1 <1>         0.1884 
     42 H19        21.2046    7.8686   -5.7875 H         1 <1>         0.0819 
     43 H20        18.1354    9.6629   -6.7437 H         1 <1>         0.2540 
     44 H21        19.3400    6.4430   -6.5354 H         1 <1>         0.0346 
     45 H22        17.6595    7.1894   -4.7713 H         1 <1>         0.0267 
     46 H23        18.5359    6.2041   -3.5739 H         1 <1>         0.0267 
     47 H24        17.1997    5.0837   -6.1134 H         1 <1>         0.0230 
     48 H25        16.4886    5.0569   -4.4762 H         1 <1>         0.0230 
     49 H26        17.9577    4.1188   -4.8101 H         1 <1>         0.0230 
     50 H27        20.1737    4.3268   -5.5912 H         1 <1>         0.0235 
     51 H28        20.7826    5.1608   -4.1337 H         1 <1>         0.0235 
     52 H29        21.5370    5.4500   -5.7264 H         1 <1>         0.0235 
@<TRIPOS>BOND
     1    2    1 1    
     2    2    3 1    
     3    3    4 1    
     4    4    5 1    
     5    1    5 1    
     6    1    6 2    
     7    5    7 1    
     8    7    8 1    
     9    8    9 2    
    10    9   10 1    
    11   10   11 1    
    12    4   12 1    
    13   12   13 1    
    14   13   14 2    
    15   13   15 am   
    16   15   16 1    
    17   16   17 1    
    18   17   18 1    
    19   17   19 2    
    20   16   20 1    
    21   20   21 1    
    22   21   22 1    
    23   20   23 1    
    24    2   24 1    
    25    2   25 1    
    26    3   26 1    
    27    3   27 1    
    28    4   28 1    
    29    5   29 1    
    30    7   30 1    
    31    7   31 1    
    32    8   32 1    
    33    9   33 1    
    34   10   34 1    
    35   10   35 1    
    36   11   36 1    
    37   11   37 1    
    38   11   38 1    
    39   12   39 1    
    40   12   40 1    
    41   15   41 1    
    42   16   42 1    
    43   18   43 1    
    44   20   44 1    
    45   21   45 1    
    46   21   46 1    
    47   22   47 1    
    48   22   48 1    
    49   22   49 1    
    50   23   50 1    
    51   23   51 1    
    52   23   52 1    
@<TRIPOS>SUBSTRUCTURE
     1 ****        2 TEMP              0 ****  ****    0 ROOT 
@<TRIPOS>NORMAL
@<TRIPOS>FF_PBC
FORCE_FIELD_SETUP_FEATURE Force Field Setup information
v1.0  0 0.000000 0.000000 0.000000 0.000000 0.000000 0.000000 NONE 0 0 0 0 0 0 0 0 0 0 0 0 0
