#	Name:			PISM00102
#	Creating user name:	baoopengkun
#	Creation time:		Sun Dec 16 14:35:29 2018

#	Modifying user name:	baoopengkun
#	Modification time:	Sun Dec 16 14:38:23 2018

@<TRIPOS>MOLECULE
PISM00102
   29    30     1     1     0
SMALL
GAST_HUCK


@<TRIPOS>ATOM
      1 C1         -3.0288   19.3895    1.7688 C.ar      1 <1>         0.0187 
      2 C2         -4.0935   18.5608    2.1320 C.ar      1 <1>        -0.0478 
      3 C3         -4.1967   17.2819    1.5794 C.ar      1 <1>        -0.0533 
      4 C4         -3.2485   16.8448    0.6500 C.ar      1 <1>        -0.0385 
      5 C5         -2.1905   17.6761    0.2628 C.ar      1 <1>         0.0588 
      6 C6         -2.0705   18.9397    0.8556 C.ar      1 <1>        -0.0315 
      7 C7         -1.2070   17.1761   -0.7784 C.2       1 <1>         0.2323 
      8 O8         -1.0382   15.9685   -0.8271 O.2       1 <1>        -0.3658 
      9 N9         -0.5887   17.9884   -1.5955 N.pl3     1 <1>        -0.2338 
     10 C10         0.2928   17.5491   -2.5304 C.ar      1 <1>         0.0839 
     11 C11         1.2511   16.5765   -2.2174 C.ar      1 <1>        -0.0327 
     12 C12         2.0940   16.0671   -3.2083 C.ar      1 <1>        -0.0534 
     13 C13         2.0303   16.5800   -4.5051 C.ar      1 <1>         0.0335 
     14 C14         1.1333   17.6084   -4.8038 C.ar      1 <1>        -0.0365 
     15 C15         0.2495   18.0838   -3.8265 C.ar      1 <1>         0.0839 
     16 C16        -0.7618   19.1770   -4.1173 C.2       1 <1>         0.2534 
     17 O17        -1.1473   19.8587   -3.1811 O.2       1 <1>        -0.3643 
     18 O18        -1.2724   19.4467   -5.3212 O.3       1 <1>        -0.2954 
     19 Br19       -2.8859   21.0852    2.5018 Br        1 <1>        -0.0486 
     20 Cl20        3.0780   15.9387   -5.7539 Cl        1 <1>        -0.0805 
     21 H1         -4.8368   18.9090    2.8421 H         1 <1>         0.0680 
     22 H2         -5.0138   16.6286    1.8709 H         1 <1>         0.0636 
     23 H3         -3.3416   15.8501    0.2247 H         1 <1>         0.0694 
     24 H4         -1.2297   19.5840    0.6262 H         1 <1>         0.0699 
     25 H5         -0.8213   18.9948   -1.5837 H         1 <1>         0.2127 
     26 H6          1.3554   16.2127   -1.2005 H         1 <1>         0.0544 
     27 H7          2.7998   15.2771   -2.9722 H         1 <1>         0.0630 
     28 H8          1.1477   18.0311   -5.8014 H         1 <1>         0.0647 
     29 H9         -1.0209   18.8358   -5.9998 H         1 <1>         0.2519 
@<TRIPOS>BOND
     1    2    1 ar   
     2    2    3 ar   
     3    3    4 ar   
     4    4    5 ar   
     5    5    6 ar   
     6    6    1 ar   
     7    5    7 1    
     8    7    8 2    
     9    7    9 1    
    10    9   10 1    
    11   10   11 ar   
    12   11   12 ar   
    13   12   13 ar   
    14   13   14 ar   
    15   14   15 ar   
    16   10   15 ar   
    17   15   16 1    
    18   16   17 2    
    19   16   18 1    
    20    1   19 1    
    21   13   20 1    
    22    2   21 1    
    23    3   22 1    
    24    4   23 1    
    25    6   24 1    
    26    9   25 1    
    27   11   26 1    
    28   12   27 1    
    29   14   28 1    
    30   18   29 1    
@<TRIPOS>SUBSTRUCTURE
     1 ****        2 TEMP              0 ****  ****    0 ROOT 
@<TRIPOS>NORMAL
@<TRIPOS>FF_PBC
FORCE_FIELD_SETUP_FEATURE Force Field Setup information
v1.0  0 0.000000 0.000000 0.000000 0.000000 0.000000 0.000000 NONE 0 0 0 0 1 0 0 0 0 0 0 0 0
