#	Name:			PISM01024
#	Creating user name:	14062
#	Creation time:		Sat Oct 19 23:50:29 2019

#	Modifying user name:	14062
#	Modification time:	Sat Oct 19 23:56:53 2019

@<TRIPOS>MOLECULE
PISM01024
   31    33     2     1     0
SMALL
GAST_HUCK


@<TRIPOS>ATOM
      1 C1          2.3263    0.2237   -4.4415 C.2       1 BENZYL      0.3269 
      2 N2          3.3803    0.6964   -3.8199 N.pl3     1 BENZYL     -0.1869 
      3 C2          4.5837    0.8423   -4.4443 C.ar      1 BENZYL      0.0205 
      4 C3          4.7386    0.4135   -5.7672 C.ar      1 BENZYL     -0.0341 
      5 C4          5.9757    0.4851   -6.4166 C.ar      1 BENZYL     -0.1464 
      6 C5          7.0788    1.0222   -5.7490 C.ar      1 BENZYL     -0.1540 
      7 C6          6.9304    1.4988   -4.4445 C.ar      1 BENZYL     -0.1619 
      8 C7          5.6893    1.4243   -3.8043 C.ar      1 BENZYL     -0.1184 
      9 N9          2.3760   -0.1672   -5.7288 N.am      1 BENZYL     -0.1997 
     10 C10         3.5029   -0.1206   -6.4486 C.2       1 BENZYL      0.1395 
     11 O11         3.5219   -0.4960   -7.6096 O.2       1 BENZYL     -0.4519 
     12 O12         1.2566    0.1170   -3.8603 O.2       1 BENZYL     -0.3729 
     13 H1          6.0809    0.1263   -7.4353 H         1 BENZYL      0.0090 
     14 C2          3.2460    1.0334   -2.5145 C.ar      2 BENZYL      0.0581 
     15 C3          2.4792    2.1434   -2.1505 C.ar      2 BENZYL     -0.0229 
     16 C4          2.3258    2.5064   -0.8053 C.ar      2 BENZYL      0.1370 
     17 C5          2.9828    1.7501    0.1811 C.ar      2 BENZYL      0.0981 
     18 C6          3.7355    0.6310   -0.1854 C.ar      2 BENZYL     -0.0551 
     19 C7          3.8686    0.2674   -1.5269 C.ar      2 BENZYL     -0.0598 
     20 H2          8.0448    1.0708   -6.2419 H         1 BENZYL      0.0307 
     21 H3          7.7827    1.9295   -3.9275 H         1 BENZYL     -0.0100 
     22 H4          5.6118    1.8348   -2.8037 H         1 BENZYL      0.0129 
     23 H5          1.5518   -0.5176   -6.1670 H         1 BENZYL      0.2206 
     24 H6          2.0031    2.7189   -2.9370 H         2 BENZYL      0.0389 
     25 N25         1.5503    3.5718   -0.4750 N.pl3     2 BENZYL      0.0604 
     26 O26         2.9110    2.0796    1.5392 O.3       2 BENZYL     -0.3472 
     27 H9          4.2224    0.0409    0.5841 H         2 BENZYL      0.0469 
     28 H10         4.4527   -0.6042   -1.8049 H         2 BENZYL      0.0392 
     29 O29         1.0692    4.2830   -1.3302 O.2       2 BENZYL     -0.1267 
     30 O30         1.2741    3.8785    0.8636 O.3       2 BENZYL     -0.0303 
     31 H7          2.6480    2.9763    1.7117 H         2 BENZYL      0.2395 
@<TRIPOS>BOND
     1    2    3 1    
     2    3    4 ar   
     3    3    8 ar   
     4    8    7 ar   
     5    7    6 ar   
     6    6    5 ar   
     7    5    4 ar   
     8    2    1 1    
     9    1    9 am   
    10    9   10 am   
    11    4   10 1    
    12   10   11 2    
    13    1   12 2    
    14   14    2 1    
    15   14   15 ar   
    16   14   19 ar   
    17   19   18 ar   
    18   18   17 ar   
    19   17   16 ar   
    20   16   15 ar   
    21    5   13 1    
    22    6   20 1    
    23    7   21 1    
    24    8   22 1    
    25    9   23 1    
    26   15   24 1    
    27   16   25 1    
    28   17   26 1    
    29   18   27 1    
    30   19   28 1    
    31   25   29 2    
    32   25   30 1    
    33   26   31 1    
@<TRIPOS>SUBSTRUCTURE
     1 BENZYL      2 PERM              0 ****  ****    1  
     2 BENZYL     14 PERM              0 ****  ****    1 ROOT 
@<TRIPOS>NORMAL
@<TRIPOS>FF_PBC
FORCE_FIELD_SETUP_FEATURE Force Field Setup information
v1.0  0 0.000000 0.000000 0.000000 0.000000 0.000000 0.000000 NONE 0 0 0 0 1 0 0 0 0 0 0 0 0
