#	Name:			PISM00934
#	Creating user name:	baoopengkun
#	Creation time:		Wed Dec 12 22:41:34 2018

#	Modifying user name:	baoopengkun
#	Modification time:	Wed Dec 12 22:45:32 2018

@<TRIPOS>MOLECULE
PISM00934
   28    28     1     1     0
SMALL
GAST_HUCK


@<TRIPOS>ATOM
      1 C1          2.0362  -11.8332   10.2418 C.3       1 <1>        -0.0422 
      2 C2          2.3986  -10.6046    9.4529 C.2       1 <1>         0.0167 
      3 C3          3.5012   -9.8599    9.5200 C.2       1 <1>        -0.0167 
      4 C4          3.4641   -8.7153    8.5317 C.3       1 <1>         0.1220 
      5 O5          2.1803   -8.8516    7.8853 O.3       1 <1>        -0.2655 
      6 C6          1.6188   -9.9329    8.4180 C.2       1 <1>         0.2292 
      7 C7          4.6924  -10.0415   10.4265 C.3       1 <1>        -0.0251 
      8 C8          4.5887   -8.7837    7.4660 C.3       1 <1>        -0.0101 
      9 O9          0.5227  -10.3288    8.0605 O.2       1 <1>        -0.3823 
     10 H1          1.0738  -12.2382    9.8946 H         1 <1>         0.0303 
     11 C11         4.5729  -10.1271    6.6852 C.3       1 <1>        -0.0484 
     12 C12         5.6946  -10.1671    5.6120 C.3       1 <1>        -0.0556 
     13 C13         5.6808  -11.5074    4.8315 C.3       1 <1>        -0.0653 
     14 H2          1.9507  -11.5784   11.3086 H         1 <1>         0.0303 
     15 H3          2.8122  -12.6022   10.1120 H         1 <1>         0.0303 
     16 H4          3.4902   -7.7529    9.0691 H         1 <1>         0.0848 
     17 H5          4.5100  -10.8347   11.1664 H         1 <1>         0.0428 
     18 H6          4.8951   -9.1038   10.9650 H         1 <1>         0.0428 
     19 H7          5.5800  -10.3154    9.8381 H         1 <1>         0.0428 
     20 H8          5.5661   -8.6450    7.9548 H         1 <1>         0.0321 
     21 H9          4.4399   -7.9517    6.7584 H         1 <1>         0.0321 
     22 H10         3.5956  -10.2524    6.1908 H         1 <1>         0.0268 
     23 H11         4.7150  -10.9682    7.3827 H         1 <1>         0.0268 
     24 H12         6.6764  -10.0443    6.0991 H         1 <1>         0.0263 
     25 H13         5.5556   -9.3356    4.9009 H         1 <1>         0.0263 
     26 H14         6.4820  -11.5140    4.0755 H         1 <1>         0.0230 
     27 H15         4.7155  -11.6443    4.3194 H         1 <1>         0.0230 
     28 H16         5.8402  -12.3538    5.5177 H         1 <1>         0.0230 
@<TRIPOS>BOND
     1    2    1 1    
     2    2    3 2    
     3    3    4 1    
     4    4    5 1    
     5    5    6 1    
     6    2    6 1    
     7    3    7 1    
     8    4    8 1    
     9    6    9 2    
    10    1   10 1    
    11    8   11 1    
    12   11   12 1    
    13   12   13 1    
    14    1   14 1    
    15    1   15 1    
    16    4   16 1    
    17    7   17 1    
    18    7   18 1    
    19    7   19 1    
    20    8   20 1    
    21    8   21 1    
    22   11   22 1    
    23   11   23 1    
    24   12   24 1    
    25   12   25 1    
    26   13   26 1    
    27   13   27 1    
    28   13   28 1    
@<TRIPOS>SUBSTRUCTURE
     1 ****        2 TEMP              0 ****  ****    0 ROOT 
@<TRIPOS>NORMAL
@<TRIPOS>FF_PBC
FORCE_FIELD_SETUP_FEATURE Force Field Setup information
v1.0  0 0.000000 0.000000 0.000000 0.000000 0.000000 0.000000 NONE 0 0 0 0 1 0 0 0 0 0 0 0 0
