#	Name:			PISM00906.1
#	Creating user name:	baoopengkun
#	Creation time:		Fri Dec 14 10:31:16 2018

#	Modifying user name:	baoopengkun
#	Modification time:	Fri Dec 14 10:35:06 2018

@<TRIPOS>MOLECULE
PISM00906.1
   29    31     1     1     0
SMALL
GAST_HUCK


@<TRIPOS>ATOM
      1 C1         23.8963   17.7423  -15.1822 C.ar      1 <1>        -0.0499 
      2 C2         23.3049   18.9756  -15.4766 C.ar      1 <1>        -0.0632 
      3 C3         22.0630   19.3277  -14.9273 C.ar      1 <1>        -0.0264 
      4 C4         21.3630   18.4646  -14.0685 C.ar      1 <1>         0.1570 
      5 C5         21.9869   17.2534  -13.7499 C.ar      1 <1>         0.0974 
      6 C6         23.2113   16.9032  -14.3057 C.ar      1 <1>         0.0624 
      7 C7         23.5498   15.5400  -13.7583 C.2       1 <1>         0.2411 
      8 N8         22.5813   15.1454  -12.9134 N.am      1 <1>        -0.1425 
      9 C9         21.6312   16.0965  -12.8443 C.2       1 <1>         0.2362 
     10 O10        24.5571   14.9181  -14.0490 O.2       1 <1>        -0.3671 
     11 O11        20.6369   16.0330  -12.1436 O.2       1 <1>        -0.3747 
     12 C12        22.5486   13.8732  -12.2135 C.3       1 <1>         0.2212 
     13 O13        22.2722   12.8337  -13.1731 O.3       1 <1>        -0.2348 
     14 C14        23.3569   12.0682  -13.1810 C.2       1 <1>         0.2491 
     15 C15        24.4138   12.4676  -12.2581 C.2       1 <1>         0.0288 
     16 C16        23.9166   13.5495  -11.6619 C.2       1 <1>        -0.0059 
     17 C17        25.7443   11.8062  -12.0258 C.3       1 <1>        -0.0323 
     18 O18        23.4515   11.0929  -13.9062 O.2       1 <1>        -0.3691 
     19 N19        20.1409   18.7996  -13.5836 N.pl3     1 <1>         0.1276 
     20 O20        19.8681   19.9773  -13.4997 O.2       1 <1>        -0.1109 
     21 O21        19.3784   17.9070  -13.2966 O.2       1 <1>        -0.1109 
     22 H1         24.8479   17.4456  -15.6115 H         1 <1>         0.0575 
     23 H2         23.8156   19.6670  -16.1408 H         1 <1>         0.0629 
     24 H3         21.6394   20.2933  -15.1855 H         1 <1>         0.0567 
     25 H4         21.7908   13.8554  -11.4124 H         1 <1>         0.1152 
     26 H5         24.4260   14.1287  -10.8931 H         1 <1>         0.0702 
     27 H6         25.7322   10.7793  -12.4206 H         1 <1>         0.0347 
     28 H7         25.9694   11.7722  -10.9493 H         1 <1>         0.0347 
     29 H8         26.5292   12.3791  -12.5416 H         1 <1>         0.0347 
@<TRIPOS>BOND
     1    2    1 ar   
     2    2    3 ar   
     3    3    4 ar   
     4    4    5 ar   
     5    5    6 ar   
     6    1    6 ar   
     7    6    7 1    
     8    7    8 am   
     9    8    9 am   
    10    5    9 1    
    11    7   10 2    
    12    9   11 2    
    13    8   12 1    
    14   12   13 1    
    15   13   14 1    
    16   14   15 1    
    17   15   16 2    
    18   12   16 1    
    19   15   17 1    
    20   14   18 2    
    21    4   19 1    
    22   19   20 2    
    23   19   21 2    
    24    1   22 1    
    25    2   23 1    
    26    3   24 1    
    27   12   25 1    
    28   16   26 1    
    29   17   27 1    
    30   17   28 1    
    31   17   29 1    
@<TRIPOS>SUBSTRUCTURE
     1 ****        2 TEMP              0 ****  ****    0 ROOT 
@<TRIPOS>NORMAL
@<TRIPOS>FF_PBC
FORCE_FIELD_SETUP_FEATURE Force Field Setup information
v1.0  0 0.000000 0.000000 0.000000 0.000000 0.000000 0.000000 NONE 0 0 0 0 1 0 0 0 0 0 0 0 0
