#	Name:			PISM00894
#	Creating user name:	baoopengkun
#	Creation time:		Fri Dec 14 10:03:55 2018

#	Modifying user name:	baoopengkun
#	Modification time:	Fri Dec 14 10:05:24 2018

@<TRIPOS>MOLECULE
PISM00894
   28    29     1     1     0
SMALL
GAST_HUCK


@<TRIPOS>ATOM
      1 C1         13.4518    8.6681   -4.8744 C.ar      1 <1>        -0.0400 
      2 C2         14.7763    8.2286   -4.9578 C.ar      1 <1>        -0.0722 
      3 C3         15.7948    8.9609   -4.3417 C.ar      1 <1>        -0.0740 
      4 C4         15.4878   10.1423   -3.6611 C.ar      1 <1>        -0.0722 
      5 C5         14.1648   10.5897   -3.5963 C.ar      1 <1>        -0.0400 
      6 C6         13.1353    9.8391   -4.1772 C.ar      1 <1>         0.0636 
      7 N7         11.8415   10.2327   -4.0858 N.pl3     1 <1>        -0.2144 
      8 C8         11.2991   10.6003   -2.9590 C.2       1 <1>         0.3507 
      9 O9         10.1298   10.9487   -2.9404 O.2       1 <1>        -0.3605 
     10 O10        12.0285   10.5710   -1.8346 O.3       1 <1>        -0.2087 
     11 C11        11.3510   11.0626   -0.6657 C.3       1 <1>         0.2427 
     12 C12        10.0845   10.3093   -0.3321 C.2       1 <1>        -0.0021 
     13 C13         9.0605   11.1567   -0.2438 C.2       1 <1>         0.0291 
     14 C14         9.6585   12.4578   -0.5301 C.2       1 <1>         0.2494 
     15 O15        10.9581   12.4429   -0.8048 O.3       1 <1>        -0.2314 
     16 C16         7.6195   10.8508    0.0596 C.3       1 <1>        -0.0323 
     17 O17         9.0143   13.4927   -0.5159 O.2       1 <1>        -0.3691 
     18 H1         12.6645    8.0928   -5.3510 H         1 <1>         0.0528 
     19 H2         15.0140    7.3182   -5.4996 H         1 <1>         0.0586 
     20 H3         16.8223    8.6134   -4.3928 H         1 <1>         0.0514 
     21 H4         16.2785   10.7143   -3.1847 H         1 <1>         0.0586 
     22 H5         13.9460   11.5293   -3.0993 H         1 <1>         0.0528 
     23 H6         11.2544   10.2231   -4.9323 H         1 <1>         0.2129 
     24 H7         12.0464   10.9844    0.1852 H         1 <1>         0.1196 
     25 H8         10.0242    9.2316   -0.1871 H         1 <1>         0.0705 
     26 H9          6.9698   11.5962   -0.4233 H         1 <1>         0.0347 
     27 H10         7.4590   10.8857    1.1472 H         1 <1>         0.0347 
     28 H11         7.3521    9.8510   -0.3139 H         1 <1>         0.0347 
@<TRIPOS>BOND
     1    2    1 ar   
     2    2    3 ar   
     3    3    4 ar   
     4    4    5 ar   
     5    5    6 ar   
     6    1    6 ar   
     7    6    7 1    
     8    7    8 1    
     9    8    9 2    
    10    8   10 1    
    11   10   11 1    
    12   11   12 1    
    13   12   13 2    
    14   13   14 1    
    15   14   15 1    
    16   11   15 1    
    17   13   16 1    
    18   14   17 2    
    19    1   18 1    
    20    2   19 1    
    21    3   20 1    
    22    4   21 1    
    23    5   22 1    
    24    7   23 1    
    25   11   24 1    
    26   12   25 1    
    27   16   26 1    
    28   16   27 1    
    29   16   28 1    
@<TRIPOS>SUBSTRUCTURE
     1 ****        2 TEMP              0 ****  ****    0 ROOT 
@<TRIPOS>NORMAL
@<TRIPOS>FF_PBC
FORCE_FIELD_SETUP_FEATURE Force Field Setup information
v1.0  0 0.000000 0.000000 0.000000 0.000000 0.000000 0.000000 NONE 0 0 0 0 1 0 0 0 0 0 0 0 0
