#	Name:			PISM00036
#	Creating user name:	baoopengkun
#	Creation time:		Sat Nov 17 17:54:16 2018

#	Modifying user name:	baoopengkun
#	Modification time:	Sat Nov 17 18:05:17 2018

@<TRIPOS>MOLECULE
PISM00036
   27    28     1     2     0
SMALL
GAST_HUCK


@<TRIPOS>ATOM
      1 O1         -3.9571   -7.6839   10.1899 O.2       1 <1>        -0.3499 
      2 C2         -2.8933   -7.3221    9.7172 C.2       1 <1>         0.2552 
      3 C3         -1.5919   -7.5616   10.3552 C.2       1 <1>         0.0407 
      4 C4         -0.6788   -6.9976    9.5594 C.2       1 <1>         0.0407 
      5 C5         -1.4253   -6.4194    8.4345 C.2       1 <1>         0.2552 
      6 N6         -2.6869   -6.6658    8.6156 N.pl3     1 <1>        -0.1436 
      7 C7         -3.6610   -6.2754    7.7604 C.ar      1 <1>         0.1042 
      8 C8         -4.5342   -7.2176    7.2057 C.ar      1 <1>         0.1026 
      9 C9         -5.5309   -6.7930    6.3213 C.ar      1 <1>        -0.0534 
     10 C10        -5.6658   -5.4372    6.0085 C.ar      1 <1>        -0.0586 
     11 C11        -4.7884   -4.4888    6.5494 C.ar      1 <1>         0.0948 
     12 C12        -3.7868   -4.9233    7.4257 C.ar      1 <1>        -0.0214 
     13 O13        -0.9116   -5.8191    7.5058 O.2       1 <1>        -0.3499 
     14 O14        -4.3866   -8.5718    7.5242 O.3       1 <1>        -0.3340 
     15 N15        -4.9018   -3.1730    6.2333 N.pl3     1 <1>         0.0224 
     16 O16        -5.7785   -2.7841    5.4919 O.2       1 <1>        -0.1293 
     17 O17        -4.0059   -2.2283    6.7566 O.3       1 <1>        -0.2419 
     18 H3         -6.2014   -7.5112    5.8636 H         1 <1>         0.0476 
     19 H1         -1.4243   -8.0931   11.2906 H         1 <1>         0.0815 
     20 H2          0.4004   -6.9651    9.7002 H         1 <1>         0.0815 
     21 H4         -6.4607   -5.1311    5.3360 H         1 <1>         0.0392 
     22 H5         -3.0951   -4.2108    7.8614 H         1 <1>         0.0401 
     23 C23        -5.5327   -9.2468    8.0724 C.3       1 <1>         0.0540 
     24 H6         -5.2081  -10.2471    8.3941 H         1 <1>         0.0568 
     25 H7         -6.3348   -9.3694    7.3307 H         1 <1>         0.0568 
     26 H9         -3.4748   -1.8618    6.0582 H         1 <1>         0.2517 
     27 H8         -5.9292   -8.7087    8.9469 H         1 <1>         0.0568 
@<TRIPOS>BOND
     1    2    1 2    
     2    2    3 1    
     3    3    4 2    
     4    4    5 1    
     5    5    6 1    
     6    2    6 1    
     7    6    7 1    
     8    7    8 ar   
     9    8    9 ar   
    10    9   10 ar   
    11   10   11 ar   
    12   11   12 ar   
    13    7   12 ar   
    14    5   13 2    
    15    8   14 1    
    16   11   15 1    
    17   15   16 2    
    18   15   17 1    
    19    9   18 1    
    20    3   19 1    
    21    4   20 1    
    22   10   21 1    
    23   12   22 1    
    24   14   23 1    
    25   23   24 1    
    26   23   25 1    
    27   17   26 1    
    28   23   27 1    
@<TRIPOS>SUBSTRUCTURE
     1 ****        2 TEMP              0 ****  ****    0 ROOT 
@<TRIPOS>NORMAL
@<TRIPOS>FF_PBC
FORCE_FIELD_SETUP_FEATURE Force Field Setup information
v1.0  0 0.000000 0.000000 0.000000 0.000000 0.000000 0.000000 NONE 0 0 0 0 1 0 0 0 0 0 0 0 0
@<TRIPOS>RENDERING_ATTRS
ANTIALIASED_LINES 
*
