#	Name:			PISM01202
#	Creating user name:	14062
#	Creation time:		Sun Apr 07 00:27:21 2019

#	Modifying user name:	14062
#	Modification time:	Sun Apr 07 00:28:49 2019

@<TRIPOS>MOLECULE
PISM01202
   12    12     1     1     0
SMALL
GAST_HUCK


@<TRIPOS>ATOM
      1 C1         -9.3761    8.0535   -0.6020 C.2       1 <1>         0.2005 
      2 N2         -8.2757    8.0641   -1.3691 N.am      1 <1>        -0.1973 
      3 C3         -8.3795    8.1859   -2.7070 C.2       1 <1>         0.1942 
      4 N4         -9.5431    8.2962   -3.2922 N.pl3     1 <1>        -0.2239 
      5 C5        -10.6640    8.2945   -2.6145 C.2       1 <1>         0.0540 
      6 C6        -10.6706    8.1787   -1.2816 C.2       1 <1>         0.0196 
      7 O7         -9.3239    7.9452    0.6109 O.2       1 <1>        -0.4015 
      8 S8         -6.9532    8.1955   -3.6532 S.2       1 <1>        -0.2730 
      9 H1         -7.3827    7.9802   -0.9292 H         1 <1>         0.2385 
     10 H2         -9.5716    8.3873   -4.3208 H         1 <1>         0.2329 
     11 H3        -11.6256    8.3881   -3.1265 H         1 <1>         0.1186 
     12 H4        -11.5944    8.1754   -0.7024 H         1 <1>         0.0375 
@<TRIPOS>BOND
     1    2    1 am   
     2    2    3 am   
     3    3    4 1    
     4    4    5 1    
     5    5    6 2    
     6    1    6 1    
     7    1    7 2    
     8    3    8 2    
     9    2    9 1    
    10    4   10 1    
    11    5   11 1    
    12    6   12 1    
@<TRIPOS>SUBSTRUCTURE
     1 ****        2 TEMP              0 ****  ****    0 ROOT 
@<TRIPOS>NORMAL
@<TRIPOS>FF_PBC
FORCE_FIELD_SETUP_FEATURE Force Field Setup information
v1.0  0 0.000000 0.000000 0.000000 0.000000 0.000000 0.000000 NONE 0 0 0 0 1 0 0 0 0 0 0 0 0
