#	Name:			PISM00861.1
#	Creating user name:	baoopengkun
#	Creation time:		Thu Dec 13 15:12:19 2018

#	Modifying user name:	baoopengkun
#	Modification time:	Thu Dec 13 22:38:29 2018

@<TRIPOS>MOLECULE
PISM00861.1
   24    25     1     1     0
SMALL
GAST_HUCK


@<TRIPOS>ATOM
      1 F1          0.2778    1.4981    1.4748 F         1 <1>        -0.1914 
      2 C2          2.4714    0.8131    2.0114 C.ar      1 <1>        -0.0408 
      3 C3          3.8503    0.9244    1.8097 C.ar      1 <1>        -0.0765 
      4 C4          4.3445    1.8380    0.8740 C.ar      1 <1>        -0.0408 
      5 C5          3.4621    2.6395    0.1449 C.ar      1 <1>         0.1584 
      6 C6          2.0840    2.5433    0.3600 C.ar      1 <1>         0.1645 
      7 C7          1.5899    1.6180    1.2848 C.ar      1 <1>         0.1584 
      8 F8          3.9379    3.4914   -0.7606 F         1 <1>        -0.1914 
      9 O9          1.2091    3.3700   -0.3481 O.3       1 <1>        -0.2708 
     10 C10         0.5114    2.7223   -1.4215 C.3       1 <1>         0.2342 
     11 O11        -0.2918    3.7169   -2.0869 O.3       1 <1>        -0.2316 
     12 C12         0.2142    3.8173   -3.3098 C.2       1 <1>         0.2494 
     13 C13         1.3259    2.9206   -3.6048 C.2       1 <1>         0.0291 
     14 C14         1.4936    2.2487   -2.4679 C.2       1 <1>        -0.0022 
     15 C15         2.0911    2.7770   -4.8918 C.3       1 <1>        -0.0323 
     16 O16        -0.2306    4.6018   -4.1300 O.2       1 <1>        -0.3691 
     17 H1          2.0798    0.1024    2.7320 H         1 <1>         0.0541 
     18 H2          4.5358    0.3025    2.3778 H         1 <1>         0.0503 
     19 H3          5.4133    1.9284    0.7091 H         1 <1>         0.0541 
     20 H4         -0.1382    1.9052   -1.0661 H         1 <1>         0.1195 
     21 H5          2.2410    1.4711   -2.3148 H         1 <1>         0.0705 
     22 H6          2.2289    1.7124   -5.1330 H         1 <1>         0.0347 
     23 H7          3.0768    3.2540   -4.7863 H         1 <1>         0.0347 
     24 H8          1.5451    3.2612   -5.7154 H         1 <1>         0.0347 
@<TRIPOS>BOND
     1    7    1 1    
     2    2    3 ar   
     3    3    4 ar   
     4    4    5 ar   
     5    5    6 ar   
     6    6    7 ar   
     7    2    7 ar   
     8    5    8 1    
     9    6    9 1    
    10    9   10 1    
    11   10   11 1    
    12   11   12 1    
    13   12   13 1    
    14   13   14 2    
    15   10   14 1    
    16   13   15 1    
    17   12   16 2    
    18    2   17 1    
    19    3   18 1    
    20    4   19 1    
    21   10   20 1    
    22   14   21 1    
    23   15   22 1    
    24   15   23 1    
    25   15   24 1    
@<TRIPOS>SUBSTRUCTURE
     1 ****        2 TEMP              0 ****  ****    0 ROOT 
@<TRIPOS>NORMAL
@<TRIPOS>FF_PBC
FORCE_FIELD_SETUP_FEATURE Force Field Setup information
v1.0  0 0.000000 0.000000 0.000000 0.000000 0.000000 0.000000 NONE 0 0 0 0 1 0 0 0 0 0 0 0 0
