#	Name:			PISM01048
#	Creating user name:	malab
#	Creation time:		Tue Jul 02 22:40:15 2019

#	Modifying user name:	malab
#	Modification time:	Tue Jul 02 22:41:24 2019

@<TRIPOS>MOLECULE
PISM01048
   58    60     1     1     0
SMALL
GAST_HUCK


@<TRIPOS>ATOM
      1 C1         -9.7239   13.3838   -2.7082 C.2       1 <1>        -0.0986 
      2 C2        -10.2462   12.0468   -3.1708 C.3       1 <1>        -0.0360 
      3 C3         -9.1327   11.1730   -3.8024 C.3       1 <1>        -0.0409 
      4 C4         -8.3225   12.0229   -4.8136 C.3       1 <1>        -0.0202 
      5 C5         -7.6131   13.1707   -4.0444 C.3       1 <1>        -0.0323 
      6 C6         -8.5447   13.8854   -3.0975 C.2       1 <1>        -0.0984 
      7 C7         -7.2944   11.1465   -5.5819 C.3       1 <1>         0.0031 
      8 N8         -7.9659   10.0533   -6.3272 N.3       1 <1>        -0.3047 
      9 C9         -8.9351   10.4283   -7.3863 C.3       1 <1>        -0.0127 
     10 C10        -7.2938    8.7317   -6.3883 C.3       1 <1>         0.0015 
     11 C11        -5.9211    8.7791   -7.1204 C.3       1 <1>        -0.0259 
     12 C12        -6.0653    9.2299   -8.5970 C.3       1 <1>        -0.0362 
     13 C13        -4.6878    9.2192   -9.3055 C.3       1 <1>        -0.0007 
     14 N14        -4.0731    7.8713   -9.2264 N.3       1 <1>        -0.3005 
     15 C15        -3.8857    7.4100   -7.8299 C.3       1 <1>        -0.0007 
     16 C16        -5.2469    7.3817   -7.0913 C.3       1 <1>        -0.0362 
     17 C17        -2.9040    7.6776  -10.1238 C.3       1 <1>         0.0080 
     18 C18        -3.3955    7.1672  -11.5006 C.3       1 <1>        -0.0056 
     19 C19        -2.1909    6.8846  -12.4093 C.ar      1 <1>        -0.0081 
     20 C20        -1.6524    5.5958  -12.5007 C.ar      1 <1>        -0.0620 
     21 C21        -0.5633    5.3441  -13.3405 C.ar      1 <1>        -0.0726 
     22 C22        -0.0033    6.3813  -14.0915 C.ar      1 <1>        -0.0706 
     23 C23        -0.5325    7.6714  -13.9960 C.ar      1 <1>        -0.0349 
     24 C24        -1.6191    7.9221  -13.1540 C.ar      1 <1>         0.1331 
     25 F25        -2.1068    9.1576  -13.0627 F         1 <1>        -0.1891 
     26 H1        -10.3475   13.9659   -2.0268 H         1 <1>         0.0450 
     27 H2        -11.0398   12.2368   -3.9114 H         1 <1>         0.0388 
     28 H3        -10.6917   11.5059   -2.3200 H         1 <1>         0.0388 
     29 H4         -9.5882   10.2992   -4.2965 H         1 <1>         0.0289 
     30 H5         -8.4556   10.8054   -3.0138 H         1 <1>         0.0289 
     31 H6         -9.0234   12.4750   -5.5354 H         1 <1>         0.0334 
     32 H7         -7.1994   13.8908   -4.7690 H         1 <1>         0.0391 
     33 H8         -6.7816   12.7741   -3.4410 H         1 <1>         0.0391 
     34 H9         -8.2308   14.8570   -2.7108 H         1 <1>         0.0450 
     35 H10        -6.5893   10.7291   -4.8457 H         1 <1>         0.0431 
     36 H11        -6.7183   11.7655   -6.2881 H         1 <1>         0.0431 
     37 H12        -9.9239   10.5634   -6.9241 H         1 <1>         0.0391 
     38 H13        -9.0305    9.6577   -8.1657 H         1 <1>         0.0391 
     39 H14        -8.6453   11.3704   -7.8760 H         1 <1>         0.0391 
     40 H15        -7.9498    7.9889   -6.8687 H         1 <1>         0.0429 
     41 H16        -7.1397    8.3920   -5.3515 H         1 <1>         0.0429 
     42 H17        -5.2621    9.4922   -6.5975 H         1 <1>         0.0314 
     43 H18        -6.4807   10.2486   -8.6446 H         1 <1>         0.0281 
     44 H19        -6.7466    8.5469   -9.1296 H         1 <1>         0.0281 
     45 H20        -4.0219    9.9620   -8.8355 H         1 <1>         0.0427 
     46 H21        -4.8389    9.5176  -10.3551 H         1 <1>         0.0427 
     47 H22        -3.1761    8.0715   -7.3062 H         1 <1>         0.0427 
     48 H23        -3.4792    6.3850   -7.8134 H         1 <1>         0.0427 
     49 H24        -5.0927    7.0567   -6.0489 H         1 <1>         0.0281 
     50 H25        -5.9010    6.6473   -7.5892 H         1 <1>         0.0281 
     51 H26        -2.2065    6.9216   -9.7272 H         1 <1>         0.0448 
     52 H27        -2.3350    8.6141  -10.2469 H         1 <1>         0.0448 
     53 H28        -4.0500    7.9092  -11.9820 H         1 <1>         0.0431 
     54 H29        -3.9892    6.2514  -11.3518 H         1 <1>         0.0431 
     55 H30        -2.0765    4.7837  -11.9183 H         1 <1>         0.0546 
     56 H31        -0.1514    4.3416  -13.4095 H         1 <1>         0.0565 
     57 H32         0.8404    6.1858  -14.7466 H         1 <1>         0.0549 
     58 H33        -0.1025    8.4828  -14.5737 H         1 <1>         0.0585 
@<TRIPOS>BOND
     1    2    1 1    
     2    2    3 1    
     3    3    4 1    
     4    4    5 1    
     5    5    6 1    
     6    1    6 2    
     7    4    7 1    
     8    7    8 1    
     9    8    9 1    
    10    8   10 1    
    11   10   11 1    
    12   11   12 1    
    13   12   13 1    
    14   13   14 1    
    15   14   15 1    
    16   15   16 1    
    17   11   16 1    
    18   14   17 1    
    19   17   18 1    
    20   18   19 1    
    21   19   20 ar   
    22   20   21 ar   
    23   21   22 ar   
    24   22   23 ar   
    25   23   24 ar   
    26   19   24 ar   
    27   24   25 1    
    28    1   26 1    
    29    2   27 1    
    30    2   28 1    
    31    3   29 1    
    32    3   30 1    
    33    4   31 1    
    34    5   32 1    
    35    5   33 1    
    36    6   34 1    
    37    7   35 1    
    38    7   36 1    
    39    9   37 1    
    40    9   38 1    
    41    9   39 1    
    42   10   40 1    
    43   10   41 1    
    44   11   42 1    
    45   12   43 1    
    46   12   44 1    
    47   13   45 1    
    48   13   46 1    
    49   15   47 1    
    50   15   48 1    
    51   16   49 1    
    52   16   50 1    
    53   17   51 1    
    54   17   52 1    
    55   18   53 1    
    56   18   54 1    
    57   20   55 1    
    58   21   56 1    
    59   22   57 1    
    60   23   58 1    
@<TRIPOS>SUBSTRUCTURE
     1 ****        2 TEMP              0 ****  ****    0 ROOT 
@<TRIPOS>NORMAL
@<TRIPOS>FF_PBC
FORCE_FIELD_SETUP_FEATURE Force Field Setup information
v1.0  0 0.000000 0.000000 0.000000 0.000000 0.000000 0.000000 NONE 0 0 0 0 1 0 0 0 0 0 0 0 0
