#	Name:			PISM00703
#	Creating user name:	baoopengkun
#	Creation time:		Sun Jan 20 21:21:54 2019

#	Modifying user name:	baoopengkun
#	Modification time:	Sun Jan 20 21:24:10 2019

@<TRIPOS>MOLECULE
PISM00703
   40    41     1     1     0
SMALL
GAST_HUCK


@<TRIPOS>ATOM
      1 N1         -2.8229    5.5976    4.9277 N.pl3     1 <1>         0.1247 
      2 C2         -1.5905    5.4271    5.4791 C.ar      1 <1>         0.1365 
      3 C3         -0.6709    6.4852    5.5290 C.ar      1 <1>        -0.0308 
      4 C4          0.5986    6.3092    6.0874 C.ar      1 <1>        -0.0532 
      5 C5          0.9852    5.0607    6.5826 C.ar      1 <1>         0.0365 
      6 C6          0.0678    4.0075    6.5623 C.ar      1 <1>        -0.0532 
      7 C7         -1.2053    4.1888    6.0138 C.ar      1 <1>        -0.0308 
      8 C8          2.3689    4.8366    7.1541 C.2       1 <1>         0.1997 
      9 O9          2.4005    4.4307    8.3042 O.2       1 <1>        -0.3905 
     10 N10         3.5174    5.0575    6.4555 N.am      1 <1>        -0.2605 
     11 C11         3.4886    5.3321    5.0078 C.3       1 <1>         0.0408 
     12 C12         4.1242    6.7040    4.6540 C.3       1 <1>        -0.0419 
     13 C13         4.1941    4.1762    4.2468 C.3       1 <1>        -0.0419 
     14 O14        -3.1079    6.6894    4.4852 O.2       1 <1>        -0.1115 
     15 O15        -3.5772    4.6491    4.9028 O.2       1 <1>        -0.1115 
     16 C16         4.7721    4.8883    7.1968 C.3       1 <1>         0.0670 
     17 C17         4.8718    5.8003    8.4298 C.ar      1 <1>        -0.0208 
     18 C18         4.1842    7.0183    8.4839 C.ar      1 <1>        -0.0584 
     19 C19         4.2813    7.8388    9.6115 C.ar      1 <1>        -0.0685 
     20 C20         5.0703    7.4471   10.6962 C.ar      1 <1>        -0.0687 
     21 C21         5.7613    6.2335   10.6490 C.ar      1 <1>        -0.0685 
     22 C22         5.6622    5.4155    9.5195 C.ar      1 <1>        -0.0584 
     23 H1         -0.9289    7.4633    5.1355 H         1 <1>         0.0532 
     24 H2          1.2853    7.1471    6.1417 H         1 <1>         0.0636 
     25 H3          0.3493    3.0430    6.9745 H         1 <1>         0.0636 
     26 H4         -1.8897    3.3463    6.0115 H         1 <1>         0.0532 
     27 H5          2.4652    5.3450    4.6001 H         1 <1>         0.0554 
     28 H6          5.1817    6.7506    4.9493 H         1 <1>         0.0252 
     29 H7          3.5860    7.5151    5.1647 H         1 <1>         0.0252 
     30 H8          4.0649    6.8829    3.5689 H         1 <1>         0.0252 
     31 H9          3.7401    3.2160    4.5378 H         1 <1>         0.0252 
     32 H10         5.2692    4.1346    4.4709 H         1 <1>         0.0252 
     33 H11         4.0800    4.3008    3.1582 H         1 <1>         0.0252 
     34 H12         5.6593    5.1184    6.5925 H         1 <1>         0.0685 
     35 H13         4.8471    3.8337    7.5070 H         1 <1>         0.0685 
     36 H14         3.5689    7.3369    7.6512 H         1 <1>         0.0557 
     37 H15         3.7430    8.7811    9.6451 H         1 <1>         0.0599 
     38 H16         5.1459    8.0833   11.5728 H         1 <1>         0.0559 
     39 H17         6.3754    5.9262   11.4900 H         1 <1>         0.0599 
     40 H18         6.2058    4.4765    9.4939 H         1 <1>         0.0557 
@<TRIPOS>BOND
     1    2    1 1    
     2    2    3 ar   
     3    3    4 ar   
     4    4    5 ar   
     5    6    5 ar   
     6    7    6 ar   
     7    2    7 ar   
     8    5    8 1    
     9    8    9 2    
    10    8   10 am   
    11   10   11 1    
    12   11   12 1    
    13   11   13 1    
    14    1   14 2    
    15    1   15 2    
    16    3   23 1    
    17   10   16 1    
    18   16   17 1    
    19   17   18 ar   
    20   18   19 ar   
    21   19   20 ar   
    22   21   20 ar   
    23   22   21 ar   
    24   17   22 ar   
    25    4   24 1    
    26    6   25 1    
    27    7   26 1    
    28   11   27 1    
    29   12   28 1    
    30   12   29 1    
    31   12   30 1    
    32   13   31 1    
    33   13   32 1    
    34   13   33 1    
    35   16   34 1    
    36   16   35 1    
    37   18   36 1    
    38   19   37 1    
    39   20   38 1    
    40   21   39 1    
    41   22   40 1    
@<TRIPOS>SUBSTRUCTURE
     1 ****        2 TEMP              0 ****  ****    0 ROOT 
@<TRIPOS>NORMAL
@<TRIPOS>FF_PBC
FORCE_FIELD_SETUP_FEATURE Force Field Setup information
v1.0  0 0.000000 0.000000 0.000000 0.000000 0.000000 0.000000 NONE 0 0 0 0 1 0 0 0 0 0 0 0 0
