#	Name:			PISM00858.1
#	Creating user name:	baoopengkun
#	Creation time:		Thu Dec 13 15:12:19 2018

#	Modifying user name:	baoopengkun
#	Modification time:	Thu Dec 13 20:16:49 2018

@<TRIPOS>MOLECULE
PISM00858.1
   25    26     1     1     0
SMALL
GAST_HUCK


@<TRIPOS>ATOM
      1 C1          0.4023   -0.8313    1.6767 C.1       1 <1>         0.0937 
      2 C2          2.8430   -1.0832    1.8254 C.ar      1 <1>        -0.0328 
      3 C3          4.1330   -0.6169    1.5555 C.ar      1 <1>        -0.0522 
      4 C4          4.3117    0.5911    0.8750 C.ar      1 <1>         0.0135 
      5 C5          3.1990    1.3344    0.4718 C.ar      1 <1>        -0.0108 
      6 C6          1.9087    0.8667    0.7333 C.ar      1 <1>         0.1382 
      7 C7          1.7310   -0.3442    1.4102 C.ar      1 <1>         0.1270 
      8 Br8         6.0199    1.2064    0.5075 Br        1 <1>        -0.0450 
      9 O9          0.8088    1.6186    0.3185 O.3       1 <1>        -0.2597 
     10 C10         0.1415    1.1428   -0.8611 C.3       1 <1>         0.2387 
     11 O11        -0.8703    2.1094   -1.2065 O.3       1 <1>        -0.2308 
     12 C12        -0.4970    2.6066   -2.3791 C.2       1 <1>         0.2495 
     13 C13         0.7163    2.0308   -2.9474 C.2       1 <1>         0.0292 
     14 C14         1.0916    1.1355   -2.0363 C.2       1 <1>        -0.0014 
     15 C15         1.3750    2.3590   -4.2593 C.3       1 <1>        -0.0323 
     16 O16        -1.1333    3.4802   -2.9425 O.2       1 <1>        -0.3691 
     17 H1          2.7051   -2.0200    2.3573 H         1 <1>         0.0693 
     18 H2          4.9964   -1.1928    1.8744 H         1 <1>         0.0574 
     19 H3          3.3315    2.2779   -0.0469 H         1 <1>         0.0594 
     20 H4         -0.3312    0.1577   -0.7145 H         1 <1>         0.1205 
     21 H5          1.9660    0.4919   -2.1249 H         1 <1>         0.0706 
     22 H6          1.7378    1.4403   -4.7440 H         1 <1>         0.0347 
     23 H7          2.2254    3.0340   -4.0823 H         1 <1>         0.0347 
     24 H8          0.6573    2.8553   -4.9297 H         1 <1>         0.0347 
     25 N25        -0.6673   -1.2234    1.8805 N.1       1 <1>        -0.3371 
@<TRIPOS>BOND
     1    7    1 1    
     2    2    3 ar   
     3    3    4 ar   
     4    4    5 ar   
     5    5    6 ar   
     6    6    7 ar   
     7    2    7 ar   
     8    4    8 1    
     9    6    9 1    
    10    9   10 1    
    11   10   11 1    
    12   11   12 1    
    13   12   13 1    
    14   13   14 2    
    15   10   14 1    
    16   13   15 1    
    17   12   16 2    
    18    2   17 1    
    19    3   18 1    
    20    5   19 1    
    21   10   20 1    
    22   14   21 1    
    23   15   22 1    
    24   15   23 1    
    25   15   24 1    
    26    1   25 3    
@<TRIPOS>SUBSTRUCTURE
     1 ****        2 TEMP              0 ****  ****    0 ROOT 
@<TRIPOS>NORMAL
@<TRIPOS>FF_PBC
FORCE_FIELD_SETUP_FEATURE Force Field Setup information
v1.0  0 0.000000 0.000000 0.000000 0.000000 0.000000 0.000000 NONE 0 0 0 0 1 0 0 0 0 0 0 0 0
