#	Name:			PISM00120
#	Creating user name:	baoopengkun
#	Creation time:		Mon Apr 08 21:30:17 2019

#	Modifying user name:	baoopengkun
#	Modification time:	Mon Apr 08 21:40:57 2019

@<TRIPOS>MOLECULE
PISM00120
  109   113     1     1     0
SMALL
GAST_HUCK


@<TRIPOS>ATOM
      1 C1         -7.1586   18.6554   -5.7164 C.3       1 <1>         0.0650 
      2 C2         -6.7045   17.8688   -6.9809 C.3       1 <1>         0.0091 
      3 C3         -5.4152   18.4827   -7.6325 C.3       1 <1>         0.0720 
      4 C4         -5.9621   18.7128   -4.7450 C.3       1 <1>         0.0278 
      5 C5         -4.7325   19.3699   -5.4160 C.3       1 <1>         0.1736 
      6 C6         -5.5619   19.4296   -8.8955 C.3       1 <1>         0.0139 
      7 C7         -4.1763   19.7223   -9.5690 C.3       1 <1>         0.1075 
      8 C8         -4.2849   20.5877  -10.8760 C.3       1 <1>         0.1810 
      9 C9         -3.0157   21.3823  -11.1649 C.2       1 <1>         0.2630 
     10 O10        -2.0232   21.2894  -10.4704 O.2       1 <1>        -0.3676 
     11 O11        -2.9752   22.2332  -12.2007 O.3       1 <1>        -0.2907 
     12 O12        -3.6864   19.2037   -4.4463 O.3       1 <1>        -0.3398 
     13 C13        -2.5953   20.0928   -4.7173 C.3       1 <1>         0.0961 
     14 C14        -3.2511   21.2428   -5.5407 C.3       1 <1>        -0.0166 
     15 C15        -4.7617   20.9066   -5.5102 C.3       1 <1>         0.0042 
     16 C16        -1.9645   20.5773   -3.3669 C.3       1 <1>         0.0883 
     17 C17        -2.9345   21.3473   -2.4405 C.3       1 <1>        -0.0212 
     18 C18        -3.3571   20.2729   -1.4301 C.3       1 <1>        -0.0189 
     19 C19        -2.1422   19.3211   -1.3097 C.3       1 <1>         0.0961 
     20 O20        -1.4469   19.4744   -2.5752 O.3       1 <1>        -0.3648 
     21 C21        -2.5858   17.8260   -1.1034 C.3       1 <1>         0.0905 
     22 O22        -3.0550   17.2415   -2.3350 O.3       1 <1>        -0.3700 
     23 C23        -3.9662   16.1593   -2.0822 C.3       1 <1>         0.0627 
     24 C24        -4.7808   16.7798   -0.9249 C.3       1 <1>        -0.0213 
     25 C25        -3.6914   17.4524   -0.0481 C.3       1 <1>        -0.0125 
     26 C26        -3.3634   14.7615   -1.7141 C.3       1 <1>        -0.0094 
     27 C27        -1.9636   14.4257   -2.3202 C.3       1 <1>        -0.0383 
     28 C28        -2.0673   13.7899   -3.7366 C.3       1 <1>        -0.0449 
     29 O29        -4.3593   18.7520   -6.6719 O.3       1 <1>        -0.3446 
     30 O30        -8.2200   17.9953   -5.0027 O.3       1 <1>        -0.3913 
     31 O31        -4.6900   19.7267  -11.9670 O.3       1 <1>        -0.3675 
     32 O32        -3.6208   18.4126   -9.8455 O.3       1 <1>        -0.3743 
     33 C33        -2.2827   18.3983  -10.3735 C.3       1 <1>         0.0371 
     34 C34        -6.4302   20.7179   -8.7260 C.3       1 <1>        -0.0574 
     35 C35        -7.8440   17.6008   -8.0026 C.3       1 <1>        -0.0577 
     36 H1         -7.4684   19.6867   -5.9316 H         1 <1>         0.0598 
     37 H2         -6.4364   16.8711   -6.5857 H         1 <1>         0.0348 
     38 C38        -1.1129   19.7008   -0.1920 C.3       1 <1>        -0.0241 
     39 C39        -3.0447   12.5855   -3.8835 C.3       1 <1>        -0.0125 
     40 C40        -1.5137   19.3447   -5.5501 C.3       1 <1>        -0.0333 
     41 C41        -0.6655   21.1853   -0.1308 C.3       1 <1>        -0.0626 
     42 C42        -4.4660   12.9624   -3.3622 C.3       1 <1>         0.0919 
     43 C43        -4.3812   13.5937   -1.9348 C.3       1 <1>        -0.0162 
     44 C44        -5.2455   13.8329   -4.4058 C.3       1 <1>         0.0732 
     45 O45        -6.5189   14.2607   -3.8875 O.3       1 <1>        -0.3922 
     46 O46        -5.2530   11.7653   -3.1792 O.3       1 <1>        -0.3860 
     47 C47        -2.5129   11.2450   -3.2875 C.3       1 <1>        -0.0597 
     48 C48        -1.1014   13.5913   -1.3248 C.3       1 <1>        -0.0621 
     49 H3         -4.9508   17.5955   -8.0942 H         1 <1>         0.0604 
     50 H4         -5.6891   17.6871   -4.4532 H         1 <1>         0.0342 
     51 H5         -6.2334   19.2535   -3.8231 H         1 <1>         0.0342 
     52 C52        -4.3630   18.4794    0.9111 C.3       1 <1>        -0.0599 
     53 H6         -6.0866   18.8417   -9.6687 H         1 <1>         0.0351 
     54 H7         -3.5612   20.2427   -8.8179 H         1 <1>         0.0652 
     55 H8         -5.0368   21.3786  -10.7671 H         1 <1>         0.0881 
     56 H9         -3.7754   22.3077  -12.7014 H         1 <1>         0.2540 
     57 H10        -2.9034   21.1995   -6.5838 H         1 <1>         0.0295 
     58 H11        -3.0332   22.2571   -5.1715 H         1 <1>         0.0295 
     59 H12        -5.2917   21.2655   -6.3882 H         1 <1>         0.0318 
     60 H13        -5.2617   21.3312   -4.6296 H         1 <1>         0.0318 
     61 H14        -1.1150   21.2320   -3.6307 H         1 <1>         0.0625 
     62 H15        -3.8083   21.7839   -2.9287 H         1 <1>         0.0292 
     63 H16        -2.4148   22.1773   -1.9477 H         1 <1>         0.0292 
     64 H17        -4.2018   19.7122   -1.8617 H         1 <1>         0.0295 
     65 H18        -3.6565   20.7449   -0.4834 H         1 <1>         0.0295 
     66 H19        -1.6689   17.2521   -0.8937 H         1 <1>         0.0627 
     67 H20        -4.5951   16.0714   -2.9714 H         1 <1>         0.0599 
     68 H21        -5.3944   16.0538   -0.3695 H         1 <1>         0.0294 
     69 H22        -5.4476   17.5550   -1.3410 H         1 <1>         0.0294 
     70 H23        -3.2398   16.7050    0.6316 H         1 <1>         0.0325 
     71 H24        -3.1949   14.8047   -0.6287 H         1 <1>         0.0329 
     72 H25        -1.3903   15.3615   -2.4543 H         1 <1>         0.0302 
     73 H26        -1.0619   13.4954   -4.0811 H         1 <1>         0.0271 
     74 H27        -2.4013   14.5918   -4.4122 H         1 <1>         0.0271 
     75 H28        -9.0489   17.9742   -5.4679 H         1 <1>         0.2098 
     76 H29        -4.8065   20.1500  -12.8106 H         1 <1>         0.2136 
     77 H30        -1.9776   17.3444  -10.4479 H         1 <1>         0.0524 
     78 H31        -1.5778   18.9115   -9.7028 H         1 <1>         0.0524 
     79 H32        -2.2296   18.8303  -11.3830 H         1 <1>         0.0524 
     80 H33        -7.0163   20.9255   -9.6366 H         1 <1>         0.0234 
     81 H34        -5.8028   21.5993   -8.5381 H         1 <1>         0.0234 
     82 H35        -7.1597   20.6464   -7.9173 H         1 <1>         0.0234 
     83 H36        -8.2975   18.5452   -8.3329 H         1 <1>         0.0234 
     84 H37        -8.6320   16.9732   -7.5593 H         1 <1>         0.0234 
     85 H38        -7.4595   17.0585   -8.8808 H         1 <1>         0.0234 
     86 H39        -0.2049   19.0967   -0.3568 H         1 <1>         0.0291 
     87 H40        -1.5011   19.4333    0.7991 H         1 <1>         0.0291 
     88 H41        -3.1211   12.3851   -4.9661 H         1 <1>         0.0327 
     89 H42        -1.0387   18.5604   -4.9399 H         1 <1>         0.0258 
     90 H43        -0.7408   20.0608   -5.8731 H         1 <1>         0.0258 
     91 H44        -1.9370   18.8652   -6.4468 H         1 <1>         0.0258 
     92 H45         0.1444   21.3078    0.6074 H         1 <1>         0.0231 
     93 H46        -1.4955   21.8359    0.1864 H         1 <1>         0.0231 
     94 H47        -0.2811   21.5143   -1.1078 H         1 <1>         0.0231 
     95 H48        -4.1080   12.7770   -1.2491 H         1 <1>         0.0297 
     96 H49        -5.3908   13.9143   -1.6348 H         1 <1>         0.0297 
     97 H50        -5.4248   13.2398   -5.3187 H         1 <1>         0.0586 
     98 H51        -4.6890   14.7169   -4.7387 H         1 <1>         0.0586 
     99 H52        -7.0539   13.5185   -3.6201 H         1 <1>         0.2095 
    100 H53        -5.3735   11.2546   -3.9728 H         1 <1>         0.2103 
    101 H54        -3.0586   10.3851   -3.7088 H         1 <1>         0.0233 
    102 H55        -2.6287   11.1816   -2.1992 H         1 <1>         0.0233 
    103 H56        -1.4489   11.1104   -3.5401 H         1 <1>         0.0233 
    104 H57        -0.2125   13.1689   -1.8138 H         1 <1>         0.0233 
    105 H58        -1.6705   12.7728   -0.8710 H         1 <1>         0.0233 
    106 H59        -0.7591   14.2360   -0.4990 H         1 <1>         0.0233 
    107 H60        -5.0420   19.1702    0.3988 H         1 <1>         0.0233 
    108 H61        -3.6343   19.0545    1.4929 H         1 <1>         0.0233 
    109 H62        -4.9848   17.9181    1.6262 H         1 <1>         0.0233 
@<TRIPOS>BOND
     1    2    1 1    
     2    2    3 1    
     3    1    4 1    
     4    4    5 1    
     5    3    6 1    
     6    6    7 1    
     7    7    8 1    
     8    8    9 1    
     9    9   10 2    
    10    9   11 1    
    11    5   12 1    
    12   12   13 1    
    13   14   13 1    
    14   15   14 1    
    15    5   15 1    
    16   13   16 1    
    17   16   17 1    
    18   17   18 1    
    19   19   18 1    
    20   20   19 1    
    21   16   20 1    
    22   19   21 1    
    23   21   22 1    
    24   22   23 1    
    25   23   24 1    
    26   24   25 1    
    27   21   25 1    
    28   23   26 1    
    29   26   27 1    
    30   27   28 1    
    31   29    5 1    
    32    3   29 1    
    33    1   30 1    
    34    8   31 1    
    35    7   32 1    
    36   32   33 1    
    37    6   34 1    
    38    2   35 1    
    39    1   36 1    
    40    2   37 1    
    41   19   38 1    
    42   28   39 1    
    43   13   40 1    
    44   38   41 1    
    45   39   42 1    
    46   42   43 1    
    47   26   43 1    
    48   42   44 1    
    49   44   45 1    
    50   42   46 1    
    51   39   47 1    
    52   27   48 1    
    53    3   49 1    
    54    4   50 1    
    55    4   51 1    
    56   25   52 1    
    57    6   53 1    
    58    7   54 1    
    59    8   55 1    
    60   11   56 1    
    61   14   57 1    
    62   14   58 1    
    63   15   59 1    
    64   15   60 1    
    65   16   61 1    
    66   17   62 1    
    67   17   63 1    
    68   18   64 1    
    69   18   65 1    
    70   21   66 1    
    71   23   67 1    
    72   24   68 1    
    73   24   69 1    
    74   25   70 1    
    75   26   71 1    
    76   27   72 1    
    77   28   73 1    
    78   28   74 1    
    79   30   75 1    
    80   31   76 1    
    81   33   77 1    
    82   33   78 1    
    83   33   79 1    
    84   34   80 1    
    85   34   81 1    
    86   34   82 1    
    87   35   83 1    
    88   35   84 1    
    89   35   85 1    
    90   38   86 1    
    91   38   87 1    
    92   39   88 1    
    93   40   89 1    
    94   40   90 1    
    95   40   91 1    
    96   41   92 1    
    97   41   93 1    
    98   41   94 1    
    99   43   95 1    
   100   43   96 1    
   101   44   97 1    
   102   44   98 1    
   103   45   99 1    
   104   46  100 1    
   105   47  101 1    
   106   47  102 1    
   107   47  103 1    
   108   48  104 1    
   109   48  105 1    
   110   48  106 1    
   111   52  107 1    
   112   52  108 1    
   113   52  109 1    
@<TRIPOS>SUBSTRUCTURE
     1 ****        2 TEMP              0 ****  ****    0 ROOT 
@<TRIPOS>NORMAL
@<TRIPOS>FF_PBC
FORCE_FIELD_SETUP_FEATURE Force Field Setup information
v1.0  0 0.000000 0.000000 0.000000 0.000000 0.000000 0.000000 NONE 0 0 0 0 1 0 0 0 0 0 0 0 0
