#	Name:			PISM00982
#	Creating user name:	baoopengkun
#	Creation time:		Fri Jan 11 21:09:25 2019

#	Modifying user name:	baoopengkun
#	Modification time:	Fri Jan 11 21:10:38 2019

@<TRIPOS>MOLECULE
PISM00982
   24    25     1     1     0
SMALL
GAST_HUCK


@<TRIPOS>ATOM
      1 O1         -1.0520    4.2178    0.5308 O.3       1 <1>        -0.3431 
      2 C2         -0.5435    2.9613    0.1770 C.ar      1 <1>         0.1055 
      3 C3         -1.1101    1.7984    0.7189 C.ar      1 <1>         0.1535 
      4 C4         -0.6246    0.5497    0.3038 C.ar      1 <1>        -0.0427 
      5 C5          0.4198    0.4375   -0.6200 C.ar      1 <1>        -0.0524 
      6 C6          1.0075    1.6061   -1.1169 C.ar      1 <1>        -0.0814 
      7 C7          0.5253    2.8560   -0.7212 C.ar      1 <1>        -0.0508 
      8 N8         -2.1125    1.8698    1.6343 N.pl3     1 <1>         0.1167 
      9 O9         -2.2236    2.8820    2.2895 O.2       1 <1>        -0.1159 
     10 O10        -2.8330    0.9039    1.7650 O.2       1 <1>        -0.1159 
     11 C11         0.8681   -0.9745   -1.0359 C.3       1 <1>         0.0415 
     12 S12         2.0558   -1.0165   -2.4212 S.3       1 <1>        -0.0348 
     13 C13         2.2388   -2.7874   -2.5194 C.2       1 <1>         0.1752 
     14 N14         1.6090   -3.6181   -1.7897 N.2       1 <1>        -0.2448 
     15 S15         3.3754   -3.4235   -3.7203 S.3       1 <1>         0.0506 
     16 C16         2.8265   -4.9644   -3.0513 C.2       1 <1>         0.0927 
     17 N17         1.9683   -4.9548   -2.1147 N.2       1 <1>        -0.2552 
     18 H1         -0.6245    4.9597    0.1168 H         1 <1>         0.2414 
     19 H2         -1.0579   -0.3603    0.7060 H         1 <1>         0.0424 
     20 H3          1.8406    1.5697   -1.8096 H         1 <1>         0.0418 
     21 H4          0.9927    3.7504   -1.1224 H         1 <1>         0.0486 
     22 H5         -0.0213   -1.5484   -1.3390 H         1 <1>         0.0551 
     23 H6          1.3259   -1.4626   -0.1623 H         1 <1>         0.0551 
     24 H7          3.2189   -5.9043   -3.4352 H         1 <1>         0.1170 
@<TRIPOS>BOND
     1    2    1 1    
     2    2    3 ar   
     3    3    4 ar   
     4    4    5 ar   
     5    5    6 ar   
     6    6    7 ar   
     7    2    7 ar   
     8    3    8 1    
     9    8    9 2    
    10    8   10 2    
    11    5   11 1    
    12   11   12 1    
    13   12   13 1    
    14   13   14 2    
    15   13   15 1    
    16   15   16 1    
    17   16   17 2    
    18   14   17 1    
    19    1   18 1    
    20    4   19 1    
    21    6   20 1    
    22    7   21 1    
    23   11   22 1    
    24   11   23 1    
    25   16   24 1    
@<TRIPOS>SUBSTRUCTURE
     1 ****        2 TEMP              0 ****  ****    0 ROOT 
@<TRIPOS>NORMAL
@<TRIPOS>FF_PBC
FORCE_FIELD_SETUP_FEATURE Force Field Setup information
v1.0  0 0.000000 0.000000 0.000000 0.000000 0.000000 0.000000 NONE 0 0 0 0 1 0 0 0 0 0 0 0 0
