#	Name:			PISM00746
#	Creating user name:	baoopengkun
#	Creation time:		Thu Jan 24 23:37:13 2019

#	Modifying user name:	baoopengkun
#	Modification time:	Thu Jan 24 23:39:07 2019

@<TRIPOS>MOLECULE
PISM00746
   56    59     1     1     0
SMALL
GAST_HUCK


@<TRIPOS>ATOM
      1 C1         -3.3853    4.5870   10.9409 C.3       1 <1>         0.0830 
      2 C2         -2.1949    4.5982    9.9363 C.3       1 <1>         0.0837 
      3 C3         -2.5271    5.4337    8.6732 C.3       1 <1>        -0.0039 
      4 C4         -2.9638    6.8728    9.0549 C.3       1 <1>         0.0465 
      5 C5         -4.1953    6.8486    9.9967 C.3       1 <1>         0.0039 
      6 C6         -3.8569    6.0276   11.2738 C.3       1 <1>        -0.0124 
      7 O7         -4.4815    3.7529   10.5233 O.3       1 <1>        -0.3891 
      8 O8         -1.8621    3.2663    9.5041 O.3       1 <1>        -0.3891 
      9 C9         -3.3188    7.6859    7.8374 C.2       1 <1>         0.1198 
     10 C10        -3.8651    9.0681    8.0636 C.3       1 <1>         0.0426 
     11 C11        -4.4267    9.2654    9.4499 C.2       1 <1>        -0.0669 
     12 C12        -4.5858    8.2704   10.3335 C.2       1 <1>        -0.0553 
     13 O13        -3.1636    7.2580    6.7058 O.2       1 <1>        -0.3880 
     14 C14        -5.1529    8.5718   11.6612 C.2       1 <1>        -0.0782 
     15 C15        -4.5259    9.3654   12.5379 C.2       1 <1>        -0.0782 
     16 C16        -5.0473    9.6837   13.8876 C.2       1 <1>        -0.0553 
     17 C17        -5.6071    8.7015   14.6114 C.2       1 <1>        -0.0669 
     18 C18        -6.1836    8.8874   15.9930 C.3       1 <1>         0.0426 
     19 C19        -5.9116   10.2465   16.5672 C.2       1 <1>         0.1198 
     20 C20        -4.7570   11.0200   15.9890 C.3       1 <1>         0.0465 
     21 C21        -4.9478   11.0914   14.4505 C.3       1 <1>         0.0039 
     22 O22        -6.6011   10.6867   17.4727 O.2       1 <1>        -0.3880 
     23 C23        -3.8139   11.9453   13.8142 C.3       1 <1>        -0.0124 
     24 C24        -3.7332   13.3574   14.4536 C.3       1 <1>         0.0830 
     25 C25        -3.5058   13.2393   15.9823 C.3       1 <1>         0.0837 
     26 C26        -4.6685   12.4361   16.6174 C.3       1 <1>        -0.0039 
     27 O27        -4.9576   14.0863   14.2417 O.3       1 <1>        -0.3891 
     28 O28        -3.4038   14.5468   16.5702 O.3       1 <1>        -0.3891 
     29 H1         -3.0376    4.1141   11.8757 H         1 <1>         0.0620 
     30 H2         -1.3154    5.0535   10.4280 H         1 <1>         0.0621 
     31 H3         -3.3268    4.9408    8.0994 H         1 <1>         0.0320 
     32 H4         -1.6339    5.4759    8.0271 H         1 <1>         0.0320 
     33 H5         -2.1252    7.3801    9.5605 H         1 <1>         0.0552 
     34 H6         -5.0534    6.3969    9.4731 H         1 <1>         0.0448 
     35 H7         -4.7380    5.9474   11.9312 H         1 <1>         0.0313 
     36 H8         -3.0602    6.5514   11.8282 H         1 <1>         0.0313 
     37 H9         -4.8725    3.9984    9.6928 H         1 <1>         0.2099 
     38 H10        -1.6515    2.6809   10.2251 H         1 <1>         0.2099 
     39 H11        -4.6636    9.2555    7.3294 H         1 <1>         0.0643 
     40 H12        -3.0508    9.7872    7.8881 H         1 <1>         0.0643 
     41 H13        -4.7234   10.2778    9.7297 H         1 <1>         0.0543 
     42 H14        -6.1123    8.1125   11.8966 H         1 <1>         0.0500 
     43 H15        -3.5730    9.7852   12.2191 H         1 <1>         0.0500 
     44 H16        -5.6644    7.6880   14.2121 H         1 <1>         0.0543 
     45 H17        -5.7457    8.1460   16.6786 H         1 <1>         0.0643 
     46 H18        -7.2722    8.7291   15.9505 H         1 <1>         0.0643 
     47 H19        -3.8322   10.4652   16.2175 H         1 <1>         0.0552 
     48 H20        -5.9097   11.5891   14.2394 H         1 <1>         0.0448 
     49 H21        -3.9954   12.0755   12.7351 H         1 <1>         0.0313 
     50 H22        -2.8474   11.4336   13.9506 H         1 <1>         0.0313 
     51 H23        -2.8874   13.9244   14.0229 H         1 <1>         0.0620 
     52 H24        -2.5521   12.7215   16.1821 H         1 <1>         0.0621 
     53 H25        -5.6211   12.9685   16.4599 H         1 <1>         0.0320 
     54 H26        -4.5000   12.3553   17.7033 H         1 <1>         0.0320 
     55 H27        -5.1541   14.2387   13.3226 H         1 <1>         0.2099 
     56 H28        -4.1789   15.0726   16.3914 H         1 <1>         0.2099 
@<TRIPOS>BOND
     1    2    1 1    
     2    2    3 1    
     3    3    4 1    
     4    4    5 1    
     5    5    6 1    
     6    1    6 1    
     7    1    7 1    
     8    2    8 1    
     9    4    9 1    
    10    9   10 1    
    11   10   11 1    
    12   11   12 2    
    13    5   12 1    
    14    9   13 2    
    15   12   14 1    
    16   14   15 2    
    17   15   16 1    
    18   16   17 2    
    19   17   18 1    
    20   18   19 1    
    21   19   20 1    
    22   20   21 1    
    23   16   21 1    
    24   19   22 2    
    25   21   23 1    
    26   23   24 1    
    27   24   25 1    
    28   25   26 1    
    29   20   26 1    
    30   24   27 1    
    31   25   28 1    
    32    1   29 1    
    33    2   30 1    
    34    3   31 1    
    35    3   32 1    
    36    4   33 1    
    37    5   34 1    
    38    6   35 1    
    39    6   36 1    
    40    7   37 1    
    41    8   38 1    
    42   10   39 1    
    43   10   40 1    
    44   11   41 1    
    45   14   42 1    
    46   15   43 1    
    47   17   44 1    
    48   18   45 1    
    49   18   46 1    
    50   20   47 1    
    51   21   48 1    
    52   23   49 1    
    53   23   50 1    
    54   24   51 1    
    55   25   52 1    
    56   26   53 1    
    57   26   54 1    
    58   27   55 1    
    59   28   56 1    
@<TRIPOS>SUBSTRUCTURE
     1 ****        2 TEMP              0 ****  ****    0 ROOT 
@<TRIPOS>NORMAL
@<TRIPOS>FF_PBC
FORCE_FIELD_SETUP_FEATURE Force Field Setup information
v1.0  0 0.000000 0.000000 0.000000 0.000000 0.000000 0.000000 NONE 0 0 0 0 1 0 0 0 0 0 0 0 0
