#	Name:			PISM00658
#	Creating user name:	baoopengkun
#	Creation time:		Sat Jan 12 19:36:55 2019

#	Modifying user name:	baoopengkun
#	Modification time:	Sat Jan 12 19:41:18 2019

@<TRIPOS>MOLECULE
PISM00658
   23    23     1     1     0
SMALL
GAST_HUCK


@<TRIPOS>ATOM
      1 I1         -5.6082   -8.0960    0.7165 I         1 <1>        -0.0504 
      2 C2         -4.4872   -6.3889    0.5130 C.ar      1 <1>         0.0241 
      3 C3         -3.0926   -6.4591    0.4581 C.ar      1 <1>         0.0088 
      4 N4         -2.3584   -5.3366    0.3094 N.ar      1 <1>        -0.2775 
      5 C5         -2.9341   -4.1246    0.1697 C.ar      1 <1>         0.1375 
      6 C6         -4.3239   -3.9937    0.2814 C.ar      1 <1>        -0.0088 
      7 C7         -5.1082   -5.1408    0.4288 C.ar      1 <1>        -0.0419 
      8 N8         -2.1065   -3.0782   -0.0599 N.pl3     1 <1>        -0.2196 
      9 C9         -2.4224   -2.0858   -0.8499 C.2       1 <1>         0.2217 
     10 O10        -3.4766   -2.0129   -1.4582 O.2       1 <1>        -0.3717 
     11 C11        -1.4260   -0.9729   -1.0483 C.3       1 <1>         0.0828 
     12 C12        -0.2609   -1.5158   -1.8326 C.2       1 <1>         0.0256 
     13 O13         1.9777   -2.1481   -1.8871 O.2       1 <1>        -0.3765 
     14 C14         1.0346   -1.8001   -1.1957 C.2       1 <1>         0.2398 
     15 H15         2.0495   -1.8872    0.4060 H         1 <1>         0.2482 
     16 H2         -2.5898   -7.4166    0.5344 H         1 <1>         0.0815 
     17 H3         -4.8005   -3.0201    0.2675 H         1 <1>         0.0629 
     18 H4         -6.1897   -5.0621    0.4797 H         1 <1>         0.0729 
     19 H5         -1.1769   -3.1014    0.3840 H         1 <1>         0.2162 
     20 H6         -1.1161   -0.5898   -0.0642 H         1 <1>         0.0757 
     21 O21         1.1637   -1.6815    0.1257 O.3       1 <1>        -0.3022 
     22 H7         -1.8841   -0.1403   -1.6046 H         1 <1>         0.0757 
     23 H8         -0.3703   -1.7154   -2.8987 H         1 <1>         0.0752 
@<TRIPOS>BOND
     1    2    1 1    
     2    2    3 ar   
     3    3    4 ar   
     4    4    5 ar   
     5    5    6 ar   
     6    6    7 ar   
     7    2    7 ar   
     8    5    8 1    
     9    8    9 1    
    10    9   10 2    
    11    9   11 1    
    12   11   12 1    
    13   14   13 2    
    14   12   14 1    
    15   21   15 1    
    16    3   16 1    
    17    6   17 1    
    18    7   18 1    
    19    8   19 1    
    20   11   20 1    
    21   14   21 1    
    22   11   22 1    
    23   12   23 1    
@<TRIPOS>SUBSTRUCTURE
     1 ****        2 TEMP              0 ****  ****    0 ROOT 
@<TRIPOS>NORMAL
@<TRIPOS>FF_PBC
FORCE_FIELD_SETUP_FEATURE Force Field Setup information
v1.0  0 0.000000 0.000000 0.000000 0.000000 0.000000 0.000000 NONE 0 0 0 0 1 0 0 0 0 0 0 0 0
