#	Name:			PISM00833.1
#	Creating user name:	baoopengkun
#	Creation time:		Fri Nov 30 18:47:00 2018

#	Modifying user name:	baoopengkun
#	Modification time:	Fri Nov 30 18:50:53 2018

@<TRIPOS>MOLECULE
PISM00833.1
   33    34     1     2     0
SMALL
GAST_HUCK


@<TRIPOS>ATOM
      1 C1        -11.3973   -2.5213   21.0291 C.ar      1 <1>        -0.0689 
      2 C2        -12.6651   -2.4056   20.4512 C.ar      1 <1>        -0.0644 
      3 C3        -12.9078   -2.9054   19.1663 C.ar      1 <1>        -0.0383 
      4 C4        -11.8635   -3.5219   18.4668 C.ar      1 <1>        -0.0644 
      5 C5        -10.5889   -3.6184   19.0326 C.ar      1 <1>        -0.0689 
      6 C6        -10.3555   -3.1224   20.3179 C.ar      1 <1>        -0.0687 
      7 C7        -14.2816   -2.7927   18.5349 C.2       1 <1>        -0.0129 
      8 C8        -15.4921   -3.2152   19.3444 C.3       1 <1>         0.0146 
      9 N9        -15.3361   -4.6207   19.7788 N.3       1 <1>        -0.3240 
     10 C10       -14.3939   -2.3312   17.2802 C.2       1 <1>         0.0663 
     11 O11       -13.2958   -1.9454   16.6114 O.3       1 <1>        -0.2779 
     12 C12       -13.5322   -1.5380   15.2521 C.3       1 <1>         0.2369 
     13 O13       -12.2663   -1.1154   14.7072 O.3       1 <1>        -0.2307 
     14 C14       -11.9945   -1.9751   13.7336 C.2       1 <1>         0.2495 
     15 C15       -13.0081   -2.9961   13.4975 C.2       1 <1>         0.0292 
     16 C16       -13.9418   -2.7234   14.4066 C.2       1 <1>        -0.0012 
     17 C17       -13.0067   -4.0918   12.4669 C.3       1 <1>        -0.0323 
     18 O18       -10.9689   -1.9051   13.0784 O.2       1 <1>        -0.3691 
     19 H1        -11.2205   -2.1416   22.0309 H         1 <1>         0.0599 
     20 H2        -13.4550   -1.9174   21.0102 H         1 <1>         0.0560 
     21 H3        -12.0379   -3.9380   17.4797 H         1 <1>         0.0560 
     22 H4         -9.7805   -4.0806   18.4742 H         1 <1>         0.0599 
     23 H5         -9.3681   -3.2038   20.7622 H         1 <1>         0.0559 
     24 H6        -16.4184   -3.1492   18.7505 H         1 <1>         0.0514 
     25 H7        -15.6150   -2.5488   20.2128 H         1 <1>         0.0514 
     26 H8        -16.2085   -4.9540   20.3264 H         1 <1>         0.1199 
     27 H9        -14.4588   -4.7382   20.4016 H         1 <1>         0.1199 
     28 H10       -15.3872   -2.2717   16.8313 H         1 <1>         0.0991 
     29 H11       -14.2454   -0.6998   15.1780 H         1 <1>         0.1208 
     30 H12       -14.8664   -3.2874   14.5208 H         1 <1>         0.0706 
     31 H13       -12.1538   -3.9712   11.7821 H         1 <1>         0.0347 
     32 H14       -13.9392   -4.0589   11.8840 H         1 <1>         0.0347 
     33 H15       -12.9277   -5.0681   12.9677 H         1 <1>         0.0347 
@<TRIPOS>BOND
     1    2    1 ar   
     2    2    3 ar   
     3    3    4 ar   
     4    4    5 ar   
     5    5    6 ar   
     6    1    6 ar   
     7    3    7 1    
     8    7    8 1    
     9    8    9 1    
    10    7   10 2    
    11   10   11 1    
    12   11   12 1    
    13   12   13 1    
    14   13   14 1    
    15   14   15 1    
    16   15   16 2    
    17   12   16 1    
    18   15   17 1    
    19   14   18 2    
    20    1   19 1    
    21    2   20 1    
    22    4   21 1    
    23    5   22 1    
    24    6   23 1    
    25    8   24 1    
    26    8   25 1    
    27    9   26 1    
    28    9   27 1    
    29   10   28 1    
    30   12   29 1    
    31   16   30 1    
    32   17   31 1    
    33   17   32 1    
    34   17   33 1    
@<TRIPOS>SUBSTRUCTURE
     1 ****        2 TEMP              0 ****  ****    0 ROOT 
@<TRIPOS>NORMAL
@<TRIPOS>FF_PBC
FORCE_FIELD_SETUP_FEATURE Force Field Setup information
v1.0  0 0.000000 0.000000 0.000000 0.000000 0.000000 0.000000 NONE 0 0 0 0 1 0 0 0 0 0 0 0 0
@<TRIPOS>RENDERING_ATTRS
ANTIALIASED_LINES 
*
