#	Name:			PISM00598
#	Creating user name:	baoopengkun
#	Creation time:		Mon Dec 10 12:01:01 2018

#	Modifying user name:	baoopengkun
#	Modification time:	Mon Dec 10 12:01:24 2018

@<TRIPOS>MOLECULE
PISM00598
   49    52     1     2     0
SMALL
GAST_HUCK


@<TRIPOS>ATOM
      1 C1         -3.9511   10.6971   -3.0270 C.ar      1 PHENYL     -0.0368 
      2 C2         -5.1080   10.0795   -3.5108 C.ar      1 PHENYL     -0.0260 
      3 C3         -5.0176    9.0985   -4.5030 C.ar      1 PHENYL      0.0101 
      4 C4         -3.7641    8.7277   -4.9991 C.ar      1 PHENYL     -0.0260 
      5 C5         -2.6077    9.3416   -4.5102 C.ar      1 PHENYL     -0.0368 
      6 C6         -2.6982   10.3434   -3.5382 C.ar      1 PHENYL      0.0014 
      7 C7         -1.4258   11.0438   -3.0390 C.3       1 PHENYL      0.1865 
      8 C8         -0.8106   10.2177   -1.8823 C.3       1 PHENYL      0.1041 
      9 N9          0.4620   10.7015   -1.3627 N.pl3     1 PHENYL     -0.1823 
     10 N10         1.2646   10.0434   -0.4791 N.2       1 PHENYL     -0.1909 
     11 C11         2.3385   10.6826   -0.1976 C.2       1 PHENYL      0.0618 
     12 N12         2.1691   11.8591   -1.0043 N.2       1 PHENYL     -0.2870 
     13 C13         1.0880   11.8052   -1.6403 C.2       1 PHENYL      0.1269 
     14 O14        -1.6789   12.4013   -2.6547 O.3       1 PHENYL     -0.3861 
     15 C15        -1.8651   13.1362   -3.8681 C.3       1 PHENYL      0.0633 
     16 C16        -0.8649   12.4312   -4.8192 C.3       1 PHENYL      0.0715 
     17 O17        -0.4955   11.2356   -4.1133 O.3       1 PHENYL     -0.3832 
     18 C          -6.2473    8.4539   -5.0265 C.ar      1 PHENYL      0.0022 
     19 C19        -1.4635   12.1211   -6.2169 C.3       1 PHENYL     -0.0258 
     20 C20        -0.4446   11.3574   -7.1048 C.3       1 PHENYL     -0.0535 
     21 C21        -1.0520   11.0126   -8.4893 C.3       1 PHENYL     -0.0652 
     22 H22        -4.0274   11.4532   -2.2516 H         1 PHENYL      0.0839 
     23 H23        -6.0778   10.3619   -3.1130 H         1 PHENYL      0.0700 
     24 H3         -3.6869    7.9642   -5.7669 H         1 PHENYL      0.0700 
     25 H4         -1.6360    9.0406   -4.8890 H         1 PHENYL      0.0839 
     26 H5         -0.6422    9.1892   -2.2342 H         1 PHENYL      0.0584 
     27 H6         -1.5268   10.1944   -1.0479 H         1 PHENYL      0.0584 
     28 H7          3.1542   10.4079    0.4693 H         1 PHENYL      0.0863 
     29 H8          0.7634   12.5929   -2.3169 H         1 PHENYL      0.1361 
     30 H9         -1.6573   14.2072   -3.7205 H         1 PHENYL      0.0574 
     31 H10        -2.9051   13.0194   -4.2107 H         1 PHENYL      0.0574 
     32 H11         0.0530   13.0321   -4.9279 H         1 PHENYL      0.0607 
     33 H12        -1.7403   13.0702   -6.7040 H         1 PHENYL      0.0290 
     34 H13        -2.3746   11.5136   -6.1074 H         1 PHENYL      0.0290 
     35 H14        -0.1434   10.4236   -6.6020 H         1 PHENYL      0.0263 
     36 H15         0.4570   11.9763   -7.2475 H         1 PHENYL      0.0263 
     37 H16        -0.3121   10.4765   -9.1045 H         1 PHENYL      0.0230 
     38 H17        -1.3483   11.9315   -9.0188 H         1 PHENYL      0.0230 
     39 H18        -1.9388   10.3706   -8.3700 H         1 PHENYL      0.0230 
     40 C          -6.3941    7.0646   -4.9612 C.ar      1 PHENYL     -0.0454 
     41 C          -7.5510    6.4573   -5.4584 C.ar      1 PHENYL     -0.0552 
     42 C          -8.5664    7.2393   -6.0165 C.ar      1 PHENYL     -0.0563 
     43 C          -8.4232    8.6285   -6.0789 C.ar      1 PHENYL     -0.0552 
     44 C          -7.2635    9.2346   -5.5868 C.ar      1 PHENYL     -0.0454 
     45 H1         -5.6106    6.4549   -4.5221 H         1 PHENYL      0.0672 
     46 H2         -7.6612    5.3780   -5.4107 H         1 PHENYL      0.0633 
     47 H19        -9.4659    6.7680   -6.4012 H         1 PHENYL      0.0663 
     48 H20        -9.2128    9.2366   -6.5104 H         1 PHENYL      0.0633 
     49 H21        -7.1529   10.3130   -5.6427 H         1 PHENYL      0.0672 
@<TRIPOS>BOND
     1    2    1 ar   
     2    3    2 ar   
     3    3    4 ar   
     4    4    5 ar   
     5    5    6 ar   
     6    1    6 ar   
     7    6    7 1    
     8    7    8 1    
     9    8    9 1    
    10    9   10 1    
    11   10   11 2    
    12   12   11 1    
    13   13   12 2    
    14    9   13 1    
    15    7   14 1    
    16   14   15 1    
    17   16   15 1    
    18   17   16 1    
    19    7   17 1    
    20   18   40 ar   
    21   16   19 1    
    22   19   20 1    
    23   20   21 1    
    24    1   22 1    
    25    2   23 1    
    26    4   24 1    
    27    5   25 1    
    28    8   26 1    
    29    8   27 1    
    30   11   28 1    
    31   13   29 1    
    32   15   30 1    
    33   15   31 1    
    34   16   32 1    
    35   19   33 1    
    36   19   34 1    
    37   20   35 1    
    38   20   36 1    
    39   21   37 1    
    40   21   38 1    
    41   21   39 1    
    42   18   44 ar   
    43   44   43 ar   
    44   43   42 ar   
    45   41   42 ar   
    46   40   41 ar   
    47   18    3 1    
    48   40   45 1    
    49   41   46 1    
    50   42   47 1    
    51   43   48 1    
    52   44   49 1    
@<TRIPOS>SUBSTRUCTURE
     1 PHENYL     18 PERM              0 ****  ****    0 ROOT 
@<TRIPOS>NORMAL
@<TRIPOS>FF_PBC
FORCE_FIELD_SETUP_FEATURE Force Field Setup information
v1.0  0 0.000000 0.000000 0.000000 0.000000 0.000000 0.000000 NONE 0 0 0 0 1 0 0 0 0 0 0 0 0
@<TRIPOS>RENDERING_ATTRS
ANTIALIASED_LINES 
*
