#	Name:			PISM00256
#	Creating user name:	14062
#	Creation time:		Fri Apr 05 23:42:06 2019

#	Modifying user name:	14062
#	Modification time:	Fri Apr 05 23:44:14 2019

@<TRIPOS>MOLECULE
PISM00256
   27    28     1     2     0
SMALL
GAST_HUCK


@<TRIPOS>ATOM
      1 C1         -9.8497    1.2633   -3.7025 C.ar      1 <1>        -0.0768 
      2 C2         -8.6783    1.7902   -3.1427 C.ar      1 <1>        -0.0717 
      3 C3         -7.8463    0.8906   -2.4760 C.ar      1 <1>        -0.0208 
      4 C4         -8.1383   -0.4526   -2.3581 C.ar      1 <1>         0.0447 
      5 C5         -9.3031   -0.9832   -2.9123 C.ar      1 <1>        -0.0468 
      6 C6        -10.1579   -0.1011   -3.5873 C.ar      1 <1>        -0.0748 
      7 N7         -7.1715   -1.1914   -1.6464 N.3       1 <1>        -0.2357 
      8 C8         -6.2494   -0.2689   -1.3247 C.2       1 <1>         0.0010 
      9 C9         -6.5342    0.9772   -1.7460 C.2       1 <1>        -0.0418 
     10 C10        -5.7566    2.2615   -1.5830 C.3       1 <1>        -0.0001 
     11 C11        -4.5525    2.2307   -0.5999 C.3       1 <1>         0.1119 
     12 C12        -3.7450    3.5011   -0.7465 C.2       1 <1>         0.2498 
     13 O13        -2.4675    3.4242   -0.3694 O.3       1 <1>        -0.2914 
     14 O14        -4.2239    4.5364   -1.1833 O.2       1 <1>        -0.3687 
     15 N15        -5.0262    2.1517    0.8037 N.3       1 <1>        -0.3085 
     16 H1        -10.5300    1.9247   -4.2331 H         1 <1>         0.0524 
     17 H2         -8.4261    2.8434   -3.2193 H         1 <1>         0.0551 
     18 H3         -9.5347   -2.0392   -2.8214 H         1 <1>         0.0548 
     19 H4        -11.0747   -0.4807   -4.0297 H         1 <1>         0.0543 
     20 H5         -7.6212   -1.5919   -0.7481 H         1 <1>         0.1883 
     21 H6         -5.3504   -0.5418   -0.7729 H         1 <1>         0.0751 
     22 H7         -6.4552    3.0426   -1.2440 H         1 <1>         0.0399 
     23 H8         -5.3990    2.5317   -2.5893 H         1 <1>         0.0399 
     24 H9         -3.8870    1.3873   -0.8539 H         1 <1>         0.0733 
     25 H10        -2.0308    4.2603   -0.4900 H         1 <1>         0.2540 
     26 H11        -4.1898    2.1325    1.4914 H         1 <1>         0.1213 
     27 H12        -5.6497    1.2851    0.9642 H         1 <1>         0.1213 
@<TRIPOS>BOND
     1    2    1 ar   
     2    2    3 ar   
     3    3    4 ar   
     4    4    5 ar   
     5    6    5 ar   
     6    1    6 ar   
     7    8    7 1    
     8    4    7 1    
     9    9    8 2    
    10    3    9 1    
    11    9   10 1    
    12   10   11 1    
    13   11   12 1    
    14   12   13 1    
    15   12   14 2    
    16   11   15 1    
    17    1   16 1    
    18    2   17 1    
    19    5   18 1    
    20    6   19 1    
    21    7   20 1    
    22    8   21 1    
    23   10   22 1    
    24   10   23 1    
    25   11   24 1    
    26   13   25 1    
    27   15   26 1    
    28   15   27 1    
@<TRIPOS>SUBSTRUCTURE
     1 ****        2 TEMP              0 ****  ****    0 ROOT 
@<TRIPOS>NORMAL
@<TRIPOS>FF_PBC
FORCE_FIELD_SETUP_FEATURE Force Field Setup information
v1.0  0 0.000000 0.000000 0.000000 0.000000 0.000000 0.000000 NONE 0 0 0 0 1 0 0 0 0 0 0 0 0
@<TRIPOS>RENDERING_ATTRS
ANTIALIASED_LINES 
*
