#	Name:			PISM00705
#	Creating user name:	baoopengkun
#	Creation time:		Sun Jan 20 21:21:54 2019

#	Modifying user name:	baoopengkun
#	Modification time:	Sun Jan 20 21:26:50 2019

@<TRIPOS>MOLECULE
PISM00705
   29    30     1     1     0
SMALL
GAST_HUCK


@<TRIPOS>ATOM
      1 F1          0.2224    9.7499    9.2954 F         1 <1>        -0.1823 
      2 C2          0.0712    7.6023    8.3239 C.ar      1 <1>        -0.0237 
      3 C3          0.7917    8.5811    9.0129 C.ar      1 <1>         0.1380 
      4 C4          2.1089    8.3343    9.4070 C.ar      1 <1>        -0.0081 
      5 C5          2.7214    7.1199    9.0819 C.ar      1 <1>         0.0493 
      6 C6          1.9910    6.1318    8.4142 C.ar      1 <1>        -0.0456 
      7 C7          0.6680    6.3723    8.0314 C.ar      1 <1>        -0.0578 
      8 C8          4.1629    6.8548    9.4569 C.2       1 <1>         0.2077 
      9 O9          4.3500    6.0143   10.3205 O.2       1 <1>        -0.3742 
     10 N10         5.1760    7.4651    8.9026 N.pl3     1 <1>        -0.2855 
     11 C11         5.0299    8.4563    7.8351 C.3       1 <1>         0.0383 
     12 C12         6.3392    9.2844    7.7218 C.3       1 <1>        -0.0193 
     13 C13         4.7824    7.7305    6.4897 C.3       1 <1>        -0.0428 
     14 C14         6.4833   10.4422    8.7333 C.3       1 <1>        -0.0479 
     15 C15         6.2062   10.7472    7.2440 C.3       1 <1>        -0.0479 
     16 H1         -0.9511    7.8019    8.0199 H         1 <1>         0.0641 
     17 H2          2.6493    9.0879    9.9698 H         1 <1>         0.0657 
     18 H3          2.4554    5.1760    8.1916 H         1 <1>         0.0636 
     19 H4          0.1052    5.6052    7.5076 H         1 <1>         0.0619 
     20 H5          6.1225    7.2281    9.2394 H         1 <1>         0.1775 
     21 H6          4.1888    9.1391    8.0299 H         1 <1>         0.0542 
     22 H7          7.2823    8.7775    7.4608 H         1 <1>         0.0322 
     23 H8          4.7239    8.4613    5.6680 H         1 <1>         0.0251 
     24 H9          3.8412    7.1623    6.5203 H         1 <1>         0.0251 
     25 H10         5.6071    7.0307    6.2851 H         1 <1>         0.0251 
     26 H11         7.4989   10.6614    9.0983 H         1 <1>         0.0269 
     27 H12         5.6544   10.6157    9.4371 H         1 <1>         0.0269 
     28 H13         7.0480   11.1617    6.6675 H         1 <1>         0.0269 
     29 H14         5.2027   11.1288    6.9999 H         1 <1>         0.0269 
@<TRIPOS>BOND
     1    3    1 1    
     2    3    2 ar   
     3    4    3 ar   
     4    5    4 ar   
     5    5    6 ar   
     6    6    7 ar   
     7    7    2 ar   
     8    8    5 1    
     9    8    9 2    
    10   10    8 1    
    11   10   11 1    
    12   11   12 1    
    13   11   13 1    
    14    2   16 1    
    15   12   14 1    
    16   15   14 1    
    17   12   15 1    
    18    4   17 1    
    19    6   18 1    
    20    7   19 1    
    21   10   20 1    
    22   11   21 1    
    23   12   22 1    
    24   13   23 1    
    25   13   24 1    
    26   13   25 1    
    27   14   26 1    
    28   14   27 1    
    29   15   28 1    
    30   15   29 1    
@<TRIPOS>SUBSTRUCTURE
     1 ****       10 TEMP              0 ****  ****    0 ROOT 
@<TRIPOS>NORMAL
@<TRIPOS>FF_PBC
FORCE_FIELD_SETUP_FEATURE Force Field Setup information
v1.0  0 0.000000 0.000000 0.000000 0.000000 0.000000 0.000000 NONE 0 0 0 0 1 0 0 0 0 0 0 0 0
