#	Name:			PISM00700
#	Creating user name:	baoopengkun
#	Creation time:		Thu Jan 24 23:00:29 2019

#	Modifying user name:	baoopengkun
#	Modification time:	Thu Jan 24 23:02:20 2019

@<TRIPOS>MOLECULE
PISM00700
   39    41     1     1     0
SMALL
GAST_HUCK


@<TRIPOS>ATOM
      1 F1         31.6499  -16.1705  -30.8378 F         1 <1>        -0.1793 
      2 C2         31.2933  -15.3041  -31.7822 C.ar      1 <1>         0.1377 
      3 C3         31.7462  -15.4715  -33.0928 C.ar      1 <1>        -0.0221 
      4 C4         31.3935  -14.5441  -34.0778 C.ar      1 <1>        -0.0430 
      5 C5         30.5947  -13.4407  -33.7578 C.ar      1 <1>         0.0516 
      6 C6         30.0917  -13.3139  -32.4572 C.ar      1 <1>        -0.0430 
      7 C7         30.4632  -14.2264  -31.4654 C.ar      1 <1>        -0.0221 
      8 C8         30.2927  -12.4157  -34.8327 C.2       1 <1>         0.2293 
      9 O9         29.9803  -12.8678  -35.9219 O.2       1 <1>        -0.3684 
     10 N10        30.3625  -11.1235  -34.6239 N.pl3     1 <1>        -0.2211 
     11 C11        30.7654  -10.6464  -33.4209 C.ar      1 <1>         0.0641 
     12 C12        32.0264  -10.9835  -32.9173 C.ar      1 <1>        -0.0398 
     13 C13        32.4265  -10.5262  -31.6586 C.ar      1 <1>        -0.0722 
     14 C14        31.5768   -9.7051  -30.9119 C.ar      1 <1>        -0.0739 
     15 C15        30.3275   -9.3434  -31.4241 C.ar      1 <1>        -0.0722 
     16 C16        29.9214   -9.8169  -32.6751 C.ar      1 <1>        -0.0398 
     17 C17        30.0287  -10.1737  -35.6935 C.3       1 <1>         0.0800 
     18 C18        31.0578  -10.2201  -36.8559 C.3       1 <1>         0.0917 
     19 S19        30.1119   -9.6118  -38.2502 S.o2      1 <1>        -0.0285 
     20 C20        28.7117  -10.6328  -37.7938 C.3       1 <1>         0.0682 
     21 C21        28.5902  -10.3730  -36.2715 C.3       1 <1>        -0.0059 
     22 O22        29.7812   -8.2170  -38.0353 O.2       1 <1>        -0.1743 
     23 O23        30.6918  -10.0688  -39.4970 O.2       1 <1>        -0.1743 
     24 H1         32.3728  -16.3224  -33.3394 H         1 <1>         0.0617 
     25 H2         31.7469  -14.6799  -35.0956 H         1 <1>         0.0661 
     26 H3         29.4032  -12.5134  -32.2089 H         1 <1>         0.0661 
     27 H4         30.1074  -14.1045  -30.4476 H         1 <1>         0.0617 
     28 H5         32.6979  -11.6006  -33.5056 H         1 <1>         0.0529 
     29 H6         33.3972  -10.8075  -31.2618 H         1 <1>         0.0586 
     30 H7         31.8874   -9.3479  -29.9347 H         1 <1>         0.0514 
     31 H8         29.6720   -8.6962  -30.8493 H         1 <1>         0.0586 
     32 H9         28.9451   -9.5457  -33.0637 H         1 <1>         0.0529 
     33 H10        30.0867   -9.1373  -35.3119 H         1 <1>         0.0610 
     34 H11        31.3751  -11.2468  -37.0868 H         1 <1>         0.0525 
     35 H12        31.9558   -9.6086  -36.6760 H         1 <1>         0.0525 
     36 H13        28.9629  -11.6860  -37.9962 H         1 <1>         0.0500 
     37 H14        27.8085  -10.3612  -38.3621 H         1 <1>         0.0500 
     38 H15        28.0428  -11.1885  -35.7732 H         1 <1>         0.0306 
     39 H16        27.9996   -9.4508  -36.1334 H         1 <1>         0.0306 
@<TRIPOS>BOND
     1    2    1 1    
     2    2    3 ar   
     3    3    4 ar   
     4    4    5 ar   
     5    5    6 ar   
     6    6    7 ar   
     7    2    7 ar   
     8    5    8 1    
     9    8    9 2    
    10    8   10 1    
    11   10   11 1    
    12   11   12 ar   
    13   12   13 ar   
    14   13   14 ar   
    15   14   15 ar   
    16   15   16 ar   
    17   11   16 ar   
    18   10   17 1    
    19   17   18 1    
    20   18   19 1    
    21   19   20 1    
    22   20   21 1    
    23   17   21 1    
    24   19   22 2    
    25   19   23 2    
    26    3   24 1    
    27    4   25 1    
    28    6   26 1    
    29    7   27 1    
    30   12   28 1    
    31   13   29 1    
    32   14   30 1    
    33   15   31 1    
    34   16   32 1    
    35   17   33 1    
    36   18   34 1    
    37   18   35 1    
    38   20   36 1    
    39   20   37 1    
    40   21   38 1    
    41   21   39 1    
@<TRIPOS>SUBSTRUCTURE
     1 ****        2 TEMP              0 ****  ****    0 ROOT 
@<TRIPOS>NORMAL
@<TRIPOS>FF_PBC
FORCE_FIELD_SETUP_FEATURE Force Field Setup information
v1.0  0 0.000000 0.000000 0.000000 0.000000 0.000000 0.000000 NONE 0 0 0 0 1 0 0 0 0 0 0 0 0
