#	Name:			PISM00891
#	Creating user name:	baoopengkun
#	Creation time:		Fri Dec 14 09:54:22 2018

#	Modifying user name:	baoopengkun
#	Modification time:	Fri Dec 14 09:56:10 2018

@<TRIPOS>MOLECULE
PISM00891
   32    34     1     1     0
SMALL
GAST_HUCK


@<TRIPOS>ATOM
      1 C1          9.1627    9.3497   -2.7261 C.ar      1 <1>        -0.0667 
      2 C2          9.0102    9.2076   -1.3441 C.ar      1 <1>        -0.0680 
      3 C3         10.0858    9.4683   -0.4899 C.ar      1 <1>        -0.0554 
      4 C4         11.3096    9.9036   -1.0111 C.ar      1 <1>         0.0387 
      5 C5         11.4718   10.0006   -2.3981 C.ar      1 <1>         0.1153 
      6 C6         10.3985    9.7354   -3.2524 C.ar      1 <1>        -0.0269 
      7 C7         12.4400   10.2690   -0.1196 C.ar      1 <1>         0.0654 
      8 C8         12.2425   10.9773    1.0695 C.ar      1 <1>        -0.0064 
      9 C9         13.3592   11.3145    1.8375 C.ar      1 <1>         0.0252 
     10 N10        14.5927   10.9893    1.4028 N.ar      1 <1>        -0.2681 
     11 C11        14.7620   10.3166    0.2466 C.ar      1 <1>         0.0843 
     12 N12        13.6939    9.9254   -0.4770 N.ar      1 <1>        -0.2631 
     13 O13        12.7083   10.3557   -2.9346 O.3       1 <1>        -0.2652 
     14 C14        12.9022   11.7521   -3.1960 C.3       1 <1>         0.2374 
     15 C15        12.7625   12.5604   -1.9271 C.2       1 <1>        -0.0016 
     16 C16        13.9476   13.0255   -1.5380 C.2       1 <1>         0.0292 
     17 C17        14.8533   12.5641   -2.5827 C.2       1 <1>         0.2495 
     18 O18        14.2833   11.8988   -3.5800 O.3       1 <1>        -0.2310 
     19 O19        16.0512   12.7885   -2.5553 O.2       1 <1>        -0.3691 
     20 C20        14.2879   13.8366   -0.3183 C.3       1 <1>        -0.0323 
     21 H1          8.3244    9.1581   -3.3893 H         1 <1>         0.0620 
     22 H2          8.0550    8.8930   -0.9341 H         1 <1>         0.0536 
     23 H3          9.9629    9.3264    0.5790 H         1 <1>         0.0627 
     24 H4         10.5301    9.8280   -4.3255 H         1 <1>         0.0553 
     25 H5         11.2496   11.2699    1.3923 H         1 <1>         0.0760 
     26 H6         13.2442   11.8398    2.7797 H         1 <1>         0.0922 
     27 H7         15.7623   10.0886   -0.1049 H         1 <1>         0.1119 
     28 H8         12.2379   12.1134   -3.9977 H         1 <1>         0.1203 
     29 H9         11.8247   12.7271   -1.3991 H         1 <1>         0.0705 
     30 H10        13.4492   13.8483    0.3936 H         1 <1>         0.0347 
     31 H11        14.5178   14.8687   -0.6208 H         1 <1>         0.0347 
     32 H12        15.1702   13.4035    0.1757 H         1 <1>         0.0347 
@<TRIPOS>BOND
     1    2    1 ar   
     2    2    3 ar   
     3    3    4 ar   
     4    4    5 ar   
     5    5    6 ar   
     6    1    6 ar   
     7    4    7 1    
     8    7    8 ar   
     9    8    9 ar   
    10    9   10 ar   
    11   10   11 ar   
    12   11   12 ar   
    13    7   12 ar   
    14    5   13 1    
    15   13   14 1    
    16   14   15 1    
    17   15   16 2    
    18   16   17 1    
    19   17   18 1    
    20   14   18 1    
    21   17   19 2    
    22   16   20 1    
    23    1   21 1    
    24    2   22 1    
    25    3   23 1    
    26    6   24 1    
    27    8   25 1    
    28    9   26 1    
    29   11   27 1    
    30   14   28 1    
    31   15   29 1    
    32   20   30 1    
    33   20   31 1    
    34   20   32 1    
@<TRIPOS>SUBSTRUCTURE
     1 ****        2 TEMP              0 ****  ****    0 ROOT 
@<TRIPOS>NORMAL
@<TRIPOS>FF_PBC
FORCE_FIELD_SETUP_FEATURE Force Field Setup information
v1.0  0 0.000000 0.000000 0.000000 0.000000 0.000000 0.000000 NONE 0 0 0 0 1 0 0 0 0 0 0 0 0
