#	Name:			PISM00491
#	Creating user name:	malab
#	Creation time:		Sun Apr 07 22:52:01 2019

#	Modifying user name:	malab
#	Modification time:	Sun Apr 07 22:52:53 2019

@<TRIPOS>MOLECULE
PISM00491
   11    11     1     1     0
SMALL
GAST_HUCK


@<TRIPOS>ATOM
      1 C1         15.5504    4.7269  -16.1532 C.2       1 <1>        -0.0445 
      2 C2         15.2272    4.3781  -17.4017 C.2       1 <1>        -0.0725 
      3 C3         16.2070    3.4011  -17.9093 C.2       1 <1>        -0.0725 
      4 C4         17.1224    3.1597  -16.9669 C.2       1 <1>        -0.0445 
      5 C5         16.7668    3.9787  -15.8031 C.2       1 <1>         0.0838 
      6 N6         17.4182    4.0071  -14.7104 N.2       1 <1>        -0.1214 
      7 N7         16.8932    4.8382  -13.7898 N.2       1 <1>        -0.1677 
      8 H1         15.0091    5.4322  -15.5233 H         1 <1>         0.0374 
      9 H2         14.3723    4.7551  -17.9620 H         1 <1>         0.0622 
     10 H3         16.1848    2.9482  -18.9000 H         1 <1>         0.0622 
     11 H4         17.9734    2.4838  -17.0433 H         1 <1>         0.0374 
@<TRIPOS>BOND
     1    2    1 2    
     2    2    3 1    
     3    3    4 2    
     4    4    5 1    
     5    1    5 1    
     6    5    6 2    
     7    6    7 2    
     8    1    8 1    
     9    2    9 1    
    10    3   10 1    
    11    4   11 1    
@<TRIPOS>SUBSTRUCTURE
     1 ****        2 TEMP              0 ****  ****    0 ROOT 
@<TRIPOS>NORMAL
@<TRIPOS>FF_PBC
FORCE_FIELD_SETUP_FEATURE Force Field Setup information
v1.0  0 0.000000 0.000000 0.000000 0.000000 0.000000 0.000000 NONE 0 0 0 0 0 0 0 0 0 0 0 0 0
