#	Name:			PISM00870
#	Creating user name:	baoopengkun
#	Creation time:		Thu Dec 13 23:15:37 2018

#	Modifying user name:	baoopengkun
#	Modification time:	Thu Dec 13 23:51:44 2018

@<TRIPOS>MOLECULE
PISM00870
   24    25     1     1     0
SMALL
GAST_HUCK


@<TRIPOS>ATOM
      1 H2          0.7845    0.9739    1.6895 H         1 <1>         0.0533 
      2 C2         -0.9382    2.2439    1.9695 C.ar      1 <1>        -0.0367 
      3 C3         -1.9614    2.9574    1.3398 C.ar      1 <1>         0.1208 
      4 C4         -2.0584    2.9592   -0.0539 C.ar      1 <1>        -0.0230 
      5 C5         -1.1287    2.2504   -0.8197 C.ar      1 <1>         0.0667 
      6 C6         -0.0979    1.5456   -0.1906 C.ar      1 <1>         0.1083 
      7 C7         -0.0078    1.5344    1.2042 C.ar      1 <1>        -0.0336 
      8 Cl8        -1.2557    2.2458   -2.5672 Cl        1 <1>        -0.0797 
      9 O9          0.8392    0.8550   -0.9558 O.3       1 <1>        -0.2726 
     10 C10         2.0367    1.6101   -1.1768 C.3       1 <1>         0.2351 
     11 O11         1.7179    2.8703   -1.8016 O.3       1 <1>        -0.2314 
     12 C12         2.2621    2.8084   -3.0100 C.2       1 <1>         0.2494 
     13 C13         3.0024    1.5860   -3.3032 C.2       1 <1>         0.0292 
     14 C14         2.8718    0.8675   -2.1897 C.2       1 <1>        -0.0020 
     15 C15         3.7349    1.2206   -4.5652 C.3       1 <1>        -0.0323 
     16 O16         2.1544    3.7196   -3.8124 O.2       1 <1>        -0.3691 
     17 H1         -0.8712    2.2443    3.0525 H         1 <1>         0.0579 
     18 F18        -2.8441    3.6350    2.0683 F         1 <1>        -0.1928 
     19 H3         -2.8561    3.5116   -0.5381 H         1 <1>         0.0582 
     20 H4          2.5981    1.7774   -0.2427 H         1 <1>         0.1198 
     21 H5          3.2983   -0.1219   -2.0304 H         1 <1>         0.0705 
     22 H6          3.4325    0.2159   -4.8965 H         1 <1>         0.0347 
     23 H7          4.8189    1.2284   -4.3780 H         1 <1>         0.0347 
     24 H8          3.5043    1.9429   -5.3627 H         1 <1>         0.0347 
@<TRIPOS>BOND
     1    7    1 1    
     2    3    2 ar   
     3    4    3 ar   
     4    5    4 ar   
     5    6    5 ar   
     6    6    7 ar   
     7    2    7 ar   
     8    5    8 1    
     9    6    9 1    
    10    9   10 1    
    11   10   11 1    
    12   11   12 1    
    13   12   13 1    
    14   13   14 2    
    15   10   14 1    
    16   13   15 1    
    17   12   16 2    
    18    2   17 1    
    19    3   18 1    
    20    4   19 1    
    21   10   20 1    
    22   14   21 1    
    23   15   22 1    
    24   15   23 1    
    25   15   24 1    
@<TRIPOS>SUBSTRUCTURE
     1 ****        2 TEMP              0 ****  ****    0 ROOT 
@<TRIPOS>NORMAL
@<TRIPOS>FF_PBC
FORCE_FIELD_SETUP_FEATURE Force Field Setup information
v1.0  0 0.000000 0.000000 0.000000 0.000000 0.000000 0.000000 NONE 0 0 0 0 1 0 0 0 0 0 0 0 0
