#	Name:			PISM00832.2
#	Creating user name:	baoopengkun
#	Creation time:		Fri Nov 30 18:30:09 2018

#	Modifying user name:	baoopengkun
#	Modification time:	Fri Nov 30 18:33:11 2018

@<TRIPOS>MOLECULE
PISM00832.2
   33    34     1     2     0
SMALL
GAST_HUCK


@<TRIPOS>ATOM
      1 C1        -12.1607    2.5478   18.8083 C.ar      1 <1>        -0.0630 
      2 C2        -11.7528    1.3395   18.2352 C.ar      1 <1>        -0.0547 
      3 C3        -12.6959    0.4475   17.7087 C.ar      1 <1>         0.0057 
      4 C4        -14.0504    0.8026   17.7306 C.ar      1 <1>        -0.0547 
      5 C5        -14.4600    2.0172   18.2886 C.ar      1 <1>        -0.0630 
      6 C6        -13.5152    2.8892   18.8350 C.ar      1 <1>        -0.0634 
      7 C7        -12.2841   -0.8840   17.1123 C.2       1 <1>         0.1724 
      8 C8        -10.9744   -1.4703   17.4888 C.2       1 <1>         0.2768 
      9 O9        -10.5705   -1.3316   18.6336 O.2       1 <1>        -0.3591 
     10 O10       -10.2456   -2.1353   16.5763 O.3       1 <1>        -0.2809 
     11 C11        -9.0118   -2.6779   17.0866 C.3       1 <1>         0.0645 
     12 N12       -13.1033   -1.4424   16.3055 N.2       1 <1>        -0.1061 
     13 O13       -12.6000   -2.6920   15.8977 O.3       1 <1>        -0.1680 
     14 C14       -12.2360   -2.7001   14.5118 C.3       1 <1>         0.2638 
     15 C15       -13.4650   -2.4767   13.6638 C.2       1 <1>         0.0024 
     16 C16       -13.7069   -3.5440   12.9051 C.2       1 <1>         0.0295 
     17 C17       -12.6295   -4.4627   13.2535 C.2       1 <1>         0.2498 
     18 O18       -11.7637   -4.0145   14.1540 O.3       1 <1>        -0.2273 
     19 O19       -12.5241   -5.5671   12.7490 O.2       1 <1>        -0.3691 
     20 C20       -14.8235   -3.7705   11.9228 C.3       1 <1>        -0.0323 
     21 H1        -11.4238    3.2236   19.2320 H         1 <1>         0.0613 
     22 H2        -10.6931    1.1107   18.2000 H         1 <1>         0.0608 
     23 H3        -14.7987    0.1341   17.3165 H         1 <1>         0.0608 
     24 H4        -15.5128    2.2830   18.2990 H         1 <1>         0.0613 
     25 H5        -13.8321    3.8286   19.2780 H         1 <1>         0.0603 
     26 H6         -8.5079   -3.2020   16.2612 H         1 <1>         0.0575 
     27 H7         -9.1989   -3.4028   17.8951 H         1 <1>         0.0575 
     28 H8         -8.3440   -1.8816   17.4529 H         1 <1>         0.0575 
     29 H9        -11.4581   -1.9492   14.2999 H         1 <1>         0.1248 
     30 H10       -14.0673   -1.5691   13.6800 H         1 <1>         0.0708 
     31 H11       -15.5997   -2.9967   12.0213 H         1 <1>         0.0347 
     32 H12       -15.2769   -4.7563   12.1049 H         1 <1>         0.0347 
     33 H13       -14.4187   -3.7461   10.9003 H         1 <1>         0.0347 
@<TRIPOS>BOND
     1    2    1 ar   
     2    2    3 ar   
     3    3    4 ar   
     4    4    5 ar   
     5    5    6 ar   
     6    1    6 ar   
     7    3    7 1    
     8    7    8 1    
     9    8    9 2    
    10    8   10 1    
    11   10   11 1    
    12    7   12 2    
    13   12   13 1    
    14   13   14 1    
    15   14   15 1    
    16   15   16 2    
    17   16   17 1    
    18   17   18 1    
    19   14   18 1    
    20   17   19 2    
    21   16   20 1    
    22    1   21 1    
    23    2   22 1    
    24    4   23 1    
    25    5   24 1    
    26    6   25 1    
    27   11   26 1    
    28   11   27 1    
    29   11   28 1    
    30   14   29 1    
    31   15   30 1    
    32   20   31 1    
    33   20   32 1    
    34   20   33 1    
@<TRIPOS>SUBSTRUCTURE
     1 ****        2 TEMP              0 ****  ****    0 ROOT 
@<TRIPOS>NORMAL
@<TRIPOS>FF_PBC
FORCE_FIELD_SETUP_FEATURE Force Field Setup information
v1.0  0 0.000000 0.000000 0.000000 0.000000 0.000000 0.000000 NONE 0 0 0 0 1 0 0 0 0 0 0 0 0
@<TRIPOS>RENDERING_ATTRS
ANTIALIASED_LINES 
*
