#	Name:			PISM00961
#	Creating user name:	baoopengkun
#	Creation time:		Thu Dec 13 10:35:31 2018

#	Modifying user name:	baoopengkun
#	Modification time:	Thu Dec 13 10:56:39 2018

@<TRIPOS>MOLECULE
PISM00961
   44    46     1     1     0
SMALL
GAST_HUCK


@<TRIPOS>ATOM
      1 C1         -7.3536   11.1468   -8.5068 C.ar      1 <1>        -0.0287 
      2 C2         -6.3269   11.4587   -7.6104 C.ar      1 <1>        -0.0144 
      3 C3         -6.6148   11.4959   -6.2432 C.ar      1 <1>        -0.0287 
      4 C4         -7.9158   11.2620   -5.7901 C.ar      1 <1>        -0.0427 
      5 C5         -8.9646   11.0109   -6.6849 C.ar      1 <1>        -0.0285 
      6 C6         -8.6532   10.9110   -8.0475 C.ar      1 <1>        -0.0427 
      7 C7        -10.3944   10.8529   -6.1112 C.3       1 <1>         0.0800 
      8 O8        -10.2726   10.0890   -4.8948 O.3       1 <1>        -0.4258 
      9 C9        -11.4033   10.0676   -7.0142 C.3       1 <1>        -0.0393 
     10 C10       -10.9460   12.2524   -5.7156 C.3       1 <1>         0.0787 
     11 N11       -10.0563   12.9772   -4.8179 N.pl3     1 <1>        -0.1847 
     12 N12       -10.0461   12.9138   -3.4568 N.2       1 <1>        -0.1910 
     13 C13        -9.1777   13.6887   -2.9216 C.2       1 <1>         0.0618 
     14 N14        -8.6060   14.3000   -4.0896 N.2       1 <1>        -0.2870 
     15 C15        -9.1536   13.8581   -5.1283 C.2       1 <1>         0.1268 
     16 C16       -12.1787   10.8978   -8.0783 C.3       1 <1>        -0.0247 
     17 C17       -12.9324    9.9408   -9.0138 C.ar      1 <1>        -0.0435 
     18 C18       -12.3655    9.5453  -10.2310 C.ar      1 <1>        -0.0597 
     19 C19       -13.0567    8.6798  -11.0840 C.ar      1 <1>        -0.0546 
     20 C20       -14.3180    8.2000  -10.7221 C.ar      1 <1>         0.0330 
     21 C21       -14.8862    8.5872   -9.5060 C.ar      1 <1>        -0.0546 
     22 C22       -14.1943    9.4532   -8.6542 C.ar      1 <1>        -0.0597 
     23 Cl23      -15.1842    7.1151  -11.7905 Cl        1 <1>        -0.0771 
     24 C24        -4.9075   11.7539   -8.1109 C.3       1 <1>        -0.0157 
     25 H1         -7.1438   11.0834   -9.5702 H         1 <1>         0.0652 
     26 H2         -5.8277   11.7064   -5.5259 H         1 <1>         0.0652 
     27 H3         -8.1039   11.2800   -4.7206 H         1 <1>         0.0834 
     28 H4         -9.4040   10.6445   -8.7778 H         1 <1>         0.0834 
     29 H5         -9.9135    9.2185   -5.0345 H         1 <1>         0.1944 
     30 H6        -12.1755    9.6269   -6.3613 H         1 <1>         0.0207 
     31 H7        -10.8739    9.2269   -7.4901 H         1 <1>         0.0207 
     32 H8        -11.9115   12.1260   -5.2024 H         1 <1>         0.0559 
     33 H9        -11.0996   12.8779   -6.6069 H         1 <1>         0.0559 
     34 H10        -8.9415   13.8414   -1.8697 H         1 <1>         0.0863 
     35 H11        -8.8937   14.1789   -6.1363 H         1 <1>         0.1361 
     36 H12       -11.5175   11.5432   -8.6729 H         1 <1>         0.0419 
     37 H13       -12.9167   11.5564   -7.5926 H         1 <1>         0.0419 
     38 H14       -11.3843    9.9069  -10.5207 H         1 <1>         0.0557 
     39 H15       -12.6155    8.3786  -12.0285 H         1 <1>         0.0606 
     40 H16       -15.8654    8.2135   -9.2247 H         1 <1>         0.0606 
     41 H17       -14.6426    9.7442   -7.7094 H         1 <1>         0.0557 
     42 H18        -4.3133   10.8293   -8.0615 H         1 <1>         0.0464 
     43 H19        -4.4298   12.5217   -7.4835 H         1 <1>         0.0464 
     44 H20        -4.9200   12.1171   -9.1497 H         1 <1>         0.0464 
@<TRIPOS>BOND
     1    2    1 ar   
     2    2    3 ar   
     3    3    4 ar   
     4    4    5 ar   
     5    5    6 ar   
     6    1    6 ar   
     7    5    7 1    
     8    7    8 1    
     9    7    9 1    
    10    7   10 1    
    11   10   11 1    
    12   11   12 1    
    13   12   13 2    
    14   13   14 1    
    15   14   15 2    
    16   11   15 1    
    17    9   16 1    
    18   16   17 1    
    19   17   18 ar   
    20   18   19 ar   
    21   19   20 ar   
    22   20   21 ar   
    23   21   22 ar   
    24   17   22 ar   
    25   20   23 1    
    26    2   24 1    
    27    1   25 1    
    28    3   26 1    
    29    4   27 1    
    30    6   28 1    
    31    8   29 1    
    32    9   30 1    
    33    9   31 1    
    34   10   32 1    
    35   10   33 1    
    36   13   34 1    
    37   15   35 1    
    38   16   36 1    
    39   16   37 1    
    40   18   38 1    
    41   19   39 1    
    42   21   40 1    
    43   22   41 1    
    44   24   42 1    
    45   24   43 1    
    46   24   44 1    
@<TRIPOS>SUBSTRUCTURE
     1 ****        2 TEMP              0 ****  ****    0 ROOT 
@<TRIPOS>NORMAL
@<TRIPOS>FF_PBC
FORCE_FIELD_SETUP_FEATURE Force Field Setup information
v1.0  0 0.000000 0.000000 0.000000 0.000000 0.000000 0.000000 NONE 0 0 0 0 1 0 0 0 0 0 0 0 0
