#	Name:			PISM01106
#	Creating user name:	Qinrunwen
#	Creation time:		Mon Apr 01 15:15:10 2019

#	Modifying user name:	Qinrunwen
#	Modification time:	Mon Apr 01 15:17:27 2019

@<TRIPOS>MOLECULE
PISM01106
   44    46     1     1     0
SMALL
GAST_HUCK


@<TRIPOS>ATOM
      1 C1        -19.0916   56.8527    7.3848 C.ar      1 <1>        -0.0577 
      2 C2        -18.3698   56.1110    6.4445 C.ar      1 <1>        -0.0373 
      3 C3        -17.4436   55.1490    6.8635 C.ar      1 <1>         0.0833 
      4 C4        -17.2442   54.9463    8.2341 C.ar      1 <1>        -0.0237 
      5 C5        -17.9540   55.6955    9.1765 C.ar      1 <1>         0.0442 
      6 C6        -18.8795   56.6520    8.7512 C.ar      1 <1>         0.0413 
      7 Cl7       -17.6778   55.4266   10.8857 Cl        1 <1>        -0.0731 
      8 Cl8       -19.7757   57.6031    9.9195 Cl        1 <1>        -0.0812 
      9 N9        -16.7260   54.4240    5.9600 N.pl3     1 <1>        -0.1530 
     10 C10       -17.3512   53.8291    4.9749 C.2       1 <1>         0.2452 
     11 C11       -16.3830   53.0155    4.2843 C.2       1 <1>         0.0535 
     12 C12       -15.2375   53.2424    5.2054 C.3       1 <1>         0.0711 
     13 N13       -15.8476   54.3135    6.0606 N.3       1 <1>        -0.1894 
     14 C14       -13.9366   53.7037    4.4908 C.3       1 <1>        -0.0371 
     15 O15       -18.5348   53.8852    4.6787 O.2       1 <1>        -0.3676 
     16 C16       -16.4896   52.2905    3.1639 C.2       1 <1>        -0.0508 
     17 C17       -15.3394   51.4712    2.6227 C.ar      1 <1>        -0.0474 
     18 C18       -14.9394   51.6264    1.2913 C.ar      1 <1>        -0.0353 
     19 C19       -13.7987   50.9654    0.8135 C.ar      1 <1>         0.1203 
     20 C20       -13.0673   50.1502    1.6844 C.ar      1 <1>         0.1215 
     21 C21       -13.5191   49.9216    2.9862 C.ar      1 <1>        -0.0392 
     22 C22       -14.6706   50.5632    3.4481 C.ar      1 <1>        -0.0742 
     23 O23       -11.8775   49.5583    1.2556 O.3       1 <1>        -0.3233 
     24 C24       -10.7010   50.2632    1.6830 C.3       1 <1>         0.0576 
     25 O25       -13.3610   51.0999   -0.5138 O.3       1 <1>        -0.3248 
     26 C26       -14.2483   51.5392   -1.5543 C.3       1 <1>         0.0569 
     27 H1        -19.8173   57.5887    7.0540 H         1 <1>         0.0593 
     28 H2        -18.5271   56.2962    5.3871 H         1 <1>         0.0532 
     29 H3        -16.5331   54.1993    8.5708 H         1 <1>         0.0535 
     30 H4        -15.0518   52.3579    5.8363 H         1 <1>         0.0652 
     31 H5        -15.2999   55.2513    5.9196 H         1 <1>         0.1565 
     32 H6        -13.2025   54.0355    5.2417 H         1 <1>         0.0269 
     33 H7        -14.1526   54.5413    3.8087 H         1 <1>         0.0269 
     34 H8        -13.4795   52.8907    3.9098 H         1 <1>         0.0269 
     35 H9        -17.4349   52.2967    2.6212 H         1 <1>         0.0554 
     36 H10       -15.5249   52.2745    0.6520 H         1 <1>         0.0501 
     37 H11       -12.9718   49.2454    3.6350 H         1 <1>         0.0518 
     38 H12       -15.0435   50.3553    4.4444 H         1 <1>         0.0503 
     39 H13       -10.6293   50.2798    2.7816 H         1 <1>         0.0575 
     40 H14       -10.7088   51.2968    1.3021 H         1 <1>         0.0575 
     41 H15        -9.8183   49.7438    1.2813 H         1 <1>         0.0575 
     42 H16       -13.7267   51.4162   -2.5152 H         1 <1>         0.0573 
     43 H17       -14.5081   52.6026   -1.4411 H         1 <1>         0.0573 
     44 H18       -15.1609   50.9232   -1.5687 H         1 <1>         0.0573 
@<TRIPOS>BOND
     1    2    1 ar   
     2    2    3 ar   
     3    3    4 ar   
     4    4    5 ar   
     5    5    6 ar   
     6    1    6 ar   
     7    5    7 1    
     8    6    8 1    
     9    3    9 1    
    10    9   10 1    
    11   10   11 1    
    12   11   12 1    
    13   12   13 1    
    14    9   13 1    
    15   12   14 1    
    16   10   15 2    
    17   11   16 2    
    18   16   17 1    
    19   17   18 ar   
    20   18   19 ar   
    21   19   20 ar   
    22   20   21 ar   
    23   21   22 ar   
    24   17   22 ar   
    25   20   23 1    
    26   23   24 1    
    27   19   25 1    
    28   25   26 1    
    29    1   27 1    
    30    2   28 1    
    31    4   29 1    
    32   12   30 1    
    33   13   31 1    
    34   14   32 1    
    35   14   33 1    
    36   14   34 1    
    37   16   35 1    
    38   18   36 1    
    39   21   37 1    
    40   22   38 1    
    41   24   39 1    
    42   24   40 1    
    43   24   41 1    
    44   26   42 1    
    45   26   43 1    
    46   26   44 1    
@<TRIPOS>SUBSTRUCTURE
     1 ****        2 TEMP              0 ****  ****    0 ROOT 
@<TRIPOS>NORMAL
@<TRIPOS>FF_PBC
FORCE_FIELD_SETUP_FEATURE Force Field Setup information
v1.0  0 0.000000 0.000000 0.000000 0.000000 0.000000 0.000000 NONE 0 0 0 0 1 0 0 0 0 0 0 0 0
