#	Name:			PISM00674
#	Creating user name:	baoopengkun
#	Creation time:		Mon Dec 10 10:40:19 2018

#	Modifying user name:	baoopengkun
#	Modification time:	Mon Dec 10 10:40:38 2018

@<TRIPOS>MOLECULE
PISM00674
   32    33     1     2     0
SMALL
GAST_HUCK


@<TRIPOS>ATOM
      1 C1         -5.3335   18.0033  -28.1727 C.3       1 PHENYL      0.1082 
      2 C          -5.1319   19.2734  -29.0541 C.ar      1 PHENYL     -0.0049 
      3 C          -4.1949   20.2625  -28.7093 C.ar      1 PHENYL     -0.0371 
      4 C          -4.0583   21.4406  -29.4489 C.ar      1 PHENYL     -0.0183 
      5 C          -4.8411   21.6471  -30.5835 C.ar      1 PHENYL      0.0716 
      6 C          -5.7386   20.6546  -30.9750 C.ar      1 PHENYL     -0.0039 
      7 C          -5.8672   19.4741  -30.2367 C.ar      1 PHENYL      0.0682 
      8 C8         -4.5156   18.0224  -26.8479 C.3       1 PHENYL     -0.0559 
      9 O9         -6.6874   17.9567  -27.6705 O.3       1 PHENYL     -0.4200 
     10 C10        -4.9338   16.7261  -28.9841 C.3       1 PHENYL      0.1896 
     11 O11        -4.4586   15.6551  -28.1382 O.3       1 PHENYL     -0.3534 
     12 C12        -3.9944   14.5017  -28.8654 C.3       1 PHENYL      0.0393 
     13 N13        -3.8940   17.0934  -29.9384 N.pl3     1 PHENYL     -0.1551 
     14 C14        -3.8851   16.9035  -31.2227 C.2       1 PHENYL      0.1298 
     15 N15        -2.8417   17.3878  -31.7234 N.2       1 PHENYL     -0.2869 
     16 C16        -2.0248   17.9865  -30.7044 C.2       1 PHENYL      0.0619 
     17 N17        -2.7382   17.7624  -29.6647 N.2       1 PHENYL     -0.1885 
     18 Cl18       -6.9776   18.2788  -30.8802 Cl        1 PHENYL     -0.0424 
     19 Cl19       -4.6970   23.1299  -31.5051 Cl        1 PHENYL     -0.0423 
     20 H1         -3.5342   20.1514  -27.8602 H         1 PHENYL      0.0846 
     21 H2         -3.3427   22.1983  -29.1450 H         1 PHENYL      0.0703 
     22 H3         -6.3403   20.8037  -31.8653 H         1 PHENYL      0.0708 
     23 H4         -4.7933   17.1623  -26.2189 H         1 PHENYL      0.0158 
     24 H5         -4.7410   18.9276  -26.2631 H         1 PHENYL      0.0158 
     25 H6         -3.4335   17.9602  -27.0395 H         1 PHENYL      0.0158 
     26 H7         -7.3722   17.9046  -28.3239 H         1 PHENYL      0.1957 
     27 H8         -5.8223   16.3466  -29.5083 H         1 PHENYL      0.0913 
     28 H9         -3.7030   13.7404  -28.1271 H         1 PHENYL      0.0524 
     29 H10        -3.1110   14.7402  -29.4776 H         1 PHENYL      0.0524 
     30 H11        -4.7834   14.0795  -29.5067 H         1 PHENYL      0.0524 
     31 H12        -4.6578   16.4039  -31.8058 H         1 PHENYL      0.1362 
     32 H13        -1.0641   18.4920  -30.7895 H         1 PHENYL      0.0864 
@<TRIPOS>BOND
     1    2    3 ar   
     2    2    7 ar   
     3    7    6 ar   
     4    6    5 ar   
     5    5    4 ar   
     6    4    3 ar   
     7    2    1 1    
     8    1    8 1    
     9    1    9 1    
    10    1   10 1    
    11   10   11 1    
    12   11   12 1    
    13   10   13 1    
    14   13   14 1    
    15   14   15 2    
    16   15   16 1    
    17   16   17 2    
    18   13   17 1    
    19    7   18 1    
    20    5   19 1    
    21    3   20 1    
    22    4   21 1    
    23    6   22 1    
    24    8   23 1    
    25    8   24 1    
    26    8   25 1    
    27    9   26 1    
    28   10   27 1    
    29   12   28 1    
    30   12   29 1    
    31   12   30 1    
    32   14   31 1    
    33   16   32 1    
@<TRIPOS>SUBSTRUCTURE
     1 PHENYL      2 PERM              0 ****  ****    0 ROOT 
@<TRIPOS>NORMAL
@<TRIPOS>FF_PBC
FORCE_FIELD_SETUP_FEATURE Force Field Setup information
v1.0  0 0.000000 0.000000 0.000000 0.000000 0.000000 0.000000 NONE 0 0 0 0 1 0 0 0 0 0 0 0 0
@<TRIPOS>RENDERING_ATTRS
ANTIALIASED_LINES 
*
