#	Name:			PISM01058
#	Creating user name:	malab
#	Creation time:		Tue Jul 02 23:22:21 2019

#	Modifying user name:	malab
#	Modification time:	Tue Jul 02 23:26:12 2019

@<TRIPOS>MOLECULE
PISM01058
   51    52     1     1     0
SMALL
GAST_HUCK


@<TRIPOS>ATOM
      1 C1        -13.4256    9.5291   10.7297 C.3       1 <1>        -0.0468 
      2 C2        -14.4465    9.3304   11.8780 C.3       1 <1>         0.0374 
      3 C3        -14.4810   10.7356   12.4013 C.2       1 <1>         0.2129 
      4 O4        -13.9676   11.6312   11.5549 O.3       1 <1>        -0.3654 
      5 C5        -13.7508   10.9946   10.2850 C.3       1 <1>         0.0381 
      6 O6        -14.9072   11.0320   13.5050 O.2       1 <1>        -0.3724 
      7 C7        -13.4908    8.4385    9.6193 C.3       1 <1>        -0.0726 
      8 C8        -11.9897    9.4508   11.3522 C.3       1 <1>        -0.0726 
      9 C9        -12.5380   11.6138    9.6340 C.2       1 <1>        -0.1087 
     10 C10       -12.2299   11.4083    8.3468 C.2       1 <1>        -0.0245 
     11 C11       -11.0285   11.9510    7.6772 C.2       1 <1>         0.1499 
     12 C12       -11.1632   12.4513    6.2952 C.2       1 <1>         0.2678 
     13 O13       -12.2543   12.3946    5.7506 O.2       1 <1>        -0.3660 
     14 O14       -10.0920   12.9578    5.6653 O.3       1 <1>        -0.2827 
     15 C15       -10.3622   13.4154    4.3243 C.3       1 <1>         0.0643 
     16 C16        -9.8409   11.9795    8.2979 C.2       1 <1>         0.1699 
     17 O17        -9.7385   11.4903    9.5418 O.3       1 <1>        -0.2038 
     18 C18        -8.4182   11.5296   10.1014 C.3       1 <1>         0.2613 
     19 C19        -8.4944   10.7557   11.3941 C.2       1 <1>         0.0035 
     20 C20        -7.7982    9.6249   11.3001 C.2       1 <1>         0.0296 
     21 C21        -7.2343    9.6822    9.9554 C.2       1 <1>         0.2499 
     22 O22        -7.5287   10.7727    9.2577 O.3       1 <1>        -0.2265 
     23 O23        -6.5317    8.7985    9.4971 O.2       1 <1>        -0.3691 
     24 C24        -7.6268    8.5520   12.3401 C.3       1 <1>        -0.0323 
     25 C25       -14.9952   11.4196    9.5034 C.2       1 <1>        -0.1019 
     26 C26       -16.0696   10.6661    9.2216 C.2       1 <1>        -0.0912 
     27 C27       -14.9968   12.8656    9.0365 C.3       1 <1>        -0.0470 
     28 H1        -14.1095    8.6208   12.6481 H         1 <1>         0.0506 
     29 H2        -15.4512    9.0382   11.5541 H         1 <1>         0.0506 
     30 H3        -14.4307    8.4200    9.0612 H         1 <1>         0.0220 
     31 H4        -13.3581    7.4465   10.0775 H         1 <1>         0.0220 
     32 H5        -12.6813    8.5872    8.8898 H         1 <1>         0.0220 
     33 H6        -11.8197    8.4664   11.8147 H         1 <1>         0.0220 
     34 H7        -11.2112    9.5863   10.5874 H         1 <1>         0.0220 
     35 H8        -11.8409   10.2179   12.1277 H         1 <1>         0.0220 
     36 H9        -11.9123   12.2435   10.2658 H         1 <1>         0.0366 
     37 H10       -12.9063   10.8074    7.7379 H         1 <1>         0.1072 
     38 H11       -11.1092   14.2256    4.3202 H         1 <1>         0.0575 
     39 H12       -10.7119   12.5911    3.6817 H         1 <1>         0.0575 
     40 H13        -9.4242   13.8074    3.9044 H         1 <1>         0.0575 
     41 H14        -8.9776   12.3896    7.7668 H         1 <1>         0.1851 
     42 H15        -8.0471   12.5556   10.2656 H         1 <1>         0.1262 
     43 H16        -9.0554   11.0727   12.2727 H         1 <1>         0.0710 
     44 H17        -6.8148    7.8674   12.0522 H         1 <1>         0.0347 
     45 H18        -8.5622    7.9798   12.4311 H         1 <1>         0.0347 
     46 H19        -7.3841    9.0040   13.3134 H         1 <1>         0.0347 
     47 H20       -16.2308    9.6379    9.5159 H         1 <1>         0.0748 
     48 H21       -16.9001   11.0770    8.6485 H         1 <1>         0.0748 
     49 H22       -14.3945   12.9768    8.1235 H         1 <1>         0.0379 
     50 H23       -14.5733   13.5127    9.8196 H         1 <1>         0.0379 
     51 H24       -16.0073   13.2432    8.8187 H         1 <1>         0.0379 
@<TRIPOS>BOND
     1    2    1 1    
     2    2    3 1    
     3    3    4 1    
     4    4    5 1    
     5    1    5 1    
     6    3    6 2    
     7    1    7 1    
     8    1    8 1    
     9    5    9 1    
    10    9   10 2    
    11   10   11 1    
    12   11   12 1    
    13   12   13 2    
    14   12   14 1    
    15   14   15 1    
    16   11   16 2    
    17   16   17 1    
    18   17   18 1    
    19   18   19 1    
    20   19   20 2    
    21   20   21 1    
    22   21   22 1    
    23   18   22 1    
    24   21   23 2    
    25   20   24 1    
    26    5   25 1    
    27   25   26 2    
    28   25   27 1    
    29    2   28 1    
    30    2   29 1    
    31    7   30 1    
    32    7   31 1    
    33    7   32 1    
    34    8   33 1    
    35    8   34 1    
    36    8   35 1    
    37    9   36 1    
    38   10   37 1    
    39   15   38 1    
    40   15   39 1    
    41   15   40 1    
    42   16   41 1    
    43   18   42 1    
    44   19   43 1    
    45   24   44 1    
    46   24   45 1    
    47   24   46 1    
    48   26   47 1    
    49   26   48 1    
    50   27   49 1    
    51   27   50 1    
    52   27   51 1    
@<TRIPOS>SUBSTRUCTURE
     1 ****        2 TEMP              0 ****  ****    0 ROOT 
@<TRIPOS>NORMAL
@<TRIPOS>FF_PBC
FORCE_FIELD_SETUP_FEATURE Force Field Setup information
v1.0  0 0.000000 0.000000 0.000000 0.000000 0.000000 0.000000 NONE 0 0 0 0 1 0 0 0 0 0 0 0 0
