#	Name:			PISM00993
#	Creating user name:	baoopengkun
#	Creation time:		Fri Jan 11 22:05:04 2019

#	Modifying user name:	baoopengkun
#	Modification time:	Fri Jan 11 22:36:29 2019

@<TRIPOS>MOLECULE
PISM00993
   38    40     1     1     0
SMALL
GAST_HUCK


@<TRIPOS>ATOM
      1 C1         15.8646    6.9700  -13.8342 C.2       1 <1>         0.2567 
      2 O2         16.9888    6.9030  -13.3612 O.2       1 <1>        -0.3571 
      3 C3         16.1973    3.4695   -1.3556 C.2       1 <1>         0.0412 
      4 C4         17.2608    4.0859   -1.8783 C.2       1 <1>         0.0412 
      5 O5         15.6863    7.4520  -15.0659 O.3       1 <1>        -0.2936 
      6 H1         16.0920    3.0551   -0.3541 H         1 <1>         0.0816 
      7 C7         15.1761    3.4589   -2.4114 C.2       1 <1>         0.2576 
      8 O8         14.0649    2.9766   -2.2738 O.2       1 <1>        -0.3492 
      9 N9         15.6677    4.0442   -3.4627 N.pl3     1 <1>        -0.1377 
     10 C10        16.8853    4.4470   -3.2518 C.2       1 <1>         0.2576 
     11 O11        17.6287    5.0212   -4.0290 O.2       1 <1>        -0.3492 
     12 C12        14.9965    4.2129   -4.6288 C.ar      1 <1>         0.0861 
     13 C13        14.2579    3.1598   -5.1818 C.ar      1 <1>        -0.0343 
     14 C14        13.5552    3.3363   -6.3776 C.ar      1 <1>        -0.0441 
     15 C15        13.5976    4.5650   -7.0422 C.ar      1 <1>         0.1026 
     16 C16        14.3417    5.6158   -6.5001 C.ar      1 <1>        -0.0441 
     17 C17        15.0315    5.4429   -5.2965 C.ar      1 <1>        -0.0343 
     18 S18        12.7266    4.8095   -8.5742 S.o2      1 <1>         0.0844 
     19 O19        12.0766    3.5712   -8.9545 O.2       1 <1>        -0.1461 
     20 O20        11.9462    6.0250   -8.4556 O.2       1 <1>        -0.1461 
     21 N21        13.9689    5.0893   -9.6401 N.am      1 <1>        -0.1872 
     22 C22        13.7616    5.5787  -10.9607 C.ar      1 <1>         0.0680 
     23 C23        12.4764    5.6434  -11.5123 C.ar      1 <1>        -0.0410 
     24 C24        12.2878    6.1462  -12.8028 C.ar      1 <1>        -0.0720 
     25 C25        13.3831    6.5779  -13.5555 C.ar      1 <1>        -0.0580 
     26 C26        14.6739    6.5063  -13.0212 C.ar      1 <1>         0.0460 
     27 C27        14.8534    6.0029  -11.7277 C.ar      1 <1>        -0.0245 
     28 H2         18.2175    4.2869   -1.3987 H         1 <1>         0.0816 
     29 H3         16.5104    7.7072  -15.4659 H         1 <1>         0.2523 
     30 H4         14.2307    2.1937   -4.6883 H         1 <1>         0.0539 
     31 H5         12.9768    2.5163   -6.7899 H         1 <1>         0.0607 
     32 H6         14.3798    6.5690   -7.0174 H         1 <1>         0.0607 
     33 H7         15.5890    6.2758   -4.8805 H         1 <1>         0.0539 
     34 H8         14.8992    4.8871   -9.3349 H         1 <1>         0.2161 
     35 H9         11.6124    5.3033  -10.9537 H         1 <1>         0.0518 
     36 H10        11.2872    6.2005  -13.2221 H         1 <1>         0.0584 
     37 H11        13.2255    6.9682  -14.5562 H         1 <1>         0.0526 
     38 H12        15.8535    5.9431  -11.3127 H         1 <1>         0.0534 
@<TRIPOS>BOND
     1   26    1 1    
     2    1    2 2    
     3    4    3 2    
     4    1    5 1    
     5    3    6 1    
     6    4   28 1    
     7    3    7 1    
     8    7    8 2    
     9    9    7 1    
    10   10    9 1    
    11   10   11 2    
    12    4   10 1    
    13    9   12 1    
    14   12   13 ar   
    15   13   14 ar   
    16   14   15 ar   
    17   16   15 ar   
    18   17   16 ar   
    19   12   17 ar   
    20   15   18 1    
    21   18   19 2    
    22   18   20 2    
    23   18   21 1    
    24   21   22 1    
    25   22   23 ar   
    26   23   24 ar   
    27   24   25 ar   
    28   26   25 ar   
    29   27   26 ar   
    30   22   27 ar   
    31    5   29 1    
    32   13   30 1    
    33   14   31 1    
    34   16   32 1    
    35   17   33 1    
    36   21   34 1    
    37   23   35 1    
    38   24   36 1    
    39   25   37 1    
    40   27   38 1    
@<TRIPOS>SUBSTRUCTURE
     1 ****        4 TEMP              0 ****  ****    0 ROOT 
@<TRIPOS>NORMAL
@<TRIPOS>FF_PBC
FORCE_FIELD_SETUP_FEATURE Force Field Setup information
v1.0  0 0.000000 0.000000 0.000000 0.000000 0.000000 0.000000 NONE 0 0 0 0 1 0 0 0 0 0 0 0 0
