#	Name:			PISM00751.1
#	Creating user name:	baoopengkun
#	Creation time:		Wed Jan 02 11:45:08 2019

#	Modifying user name:	baoopengkun
#	Modification time:	Wed Jan 02 11:49:30 2019

@<TRIPOS>MOLECULE
PISM00751.1
   50    51     1     1     0
SMALL
GAST_HUCK


@<TRIPOS>ATOM
      1 C1         -2.2464   -2.6544    5.0036 C.3       1 <1>        -0.0531 
      2 C2         -1.3474   -1.3922    4.8144 C.3       1 <1>         0.0043 
      3 C3         -2.2715   -0.1374    4.8191 C.3       1 <1>        -0.0531 
      4 C4         -0.3327   -1.2938    5.9882 C.3       1 <1>         0.0221 
      5 C5          0.6401   -2.4371    5.9339 C.2       1 <1>         0.0883 
      6 O6          1.1555   -2.8389    6.9641 O.2       1 <1>        -0.4091 
      7 C7          0.9750   -3.0750    4.6504 C.2       1 <1>        -0.0281 
      8 C8          0.4338   -2.6526    3.4997 C.2       1 <1>        -0.0326 
      9 C9          0.7839   -3.2759    2.1674 C.3       1 <1>        -0.0170 
     10 C10        -0.5572   -1.5056    3.4716 C.3       1 <1>         0.0303 
     11 C11         0.1314   -0.2152    3.0722 C.2       1 <1>        -0.0752 
     12 C12         1.4338    0.0456    3.2589 C.2       1 <1>        -0.0764 
     13 C13         2.0831    1.3072    2.8306 C.2       1 <1>         0.0630 
     14 C14         1.2701    2.4649    2.4044 C.2       1 <1>         0.2381 
     15 O15         1.1970    2.7188    1.2145 O.2       1 <1>        -0.3755 
     16 O16         0.6260    3.2527    3.2805 O.3       1 <1>        -0.2861 
     17 C17         0.8835    2.9756    4.6708 C.3       1 <1>         0.0639 
     18 C18         3.4151    1.4447    2.7987 C.2       1 <1>         0.0954 
     19 O19         4.2017    0.4220    3.1682 O.3       1 <1>        -0.2571 
     20 C20         5.6128    0.6783    3.0445 C.3       1 <1>         0.2436 
     21 C21         6.0178    0.8087    1.5928 C.2       1 <1>         0.0001 
     22 C22         6.8268   -0.1881    1.2400 C.2       1 <1>         0.0293 
     23 C23         7.4500   -0.4486   -0.1042 C.3       1 <1>        -0.0323 
     24 C24         6.9606   -0.9676    2.4648 C.2       1 <1>         0.2496 
     25 O25         7.6376   -1.9792    2.5278 O.2       1 <1>        -0.3691 
     26 O26         6.3001   -0.4979    3.5154 O.3       1 <1>        -0.2296 
     27 H1         -1.6578   -3.5834    4.9995 H         1 <1>         0.0240 
     28 H2         -2.9917   -2.7232    4.1965 H         1 <1>         0.0240 
     29 H3         -2.7880   -2.6052    5.9607 H         1 <1>         0.0240 
     30 H4         -1.6918    0.7952    4.7698 H         1 <1>         0.0240 
     31 H5         -2.8723   -0.1057    5.7410 H         1 <1>         0.0240 
     32 H6         -2.9588   -0.1625    3.9595 H         1 <1>         0.0240 
     33 H7         -0.8682   -1.3156    6.9501 H         1 <1>         0.0481 
     34 H8          0.2508   -0.3634    5.9419 H         1 <1>         0.0481 
     35 H9          1.6850   -3.9017    4.6697 H         1 <1>         0.0278 
     36 H10         1.5718   -4.0391    2.2565 H         1 <1>         0.0471 
     37 H11         1.1404   -2.4944    1.4795 H         1 <1>         0.0471 
     38 H12        -0.1084   -3.7518    1.7339 H         1 <1>         0.0471 
     39 H13        -1.2933   -1.7249    2.6806 H         1 <1>         0.0692 
     40 H14        -0.4891    0.5439    2.5932 H         1 <1>         0.0535 
     41 H15         2.0657   -0.6978    3.7431 H         1 <1>         0.0411 
     42 H16         0.5460    1.9727    4.9663 H         1 <1>         0.0574 
     43 H17         0.3159    3.7105    5.2604 H         1 <1>         0.0574 
     44 H18         1.9515    3.0929    4.9135 H         1 <1>         0.0574 
     45 H19         3.8135    2.4064    2.4645 H         1 <1>         0.1235 
     46 H20         5.9407    1.5416    3.6481 H         1 <1>         0.1223 
     47 H21         5.6962    1.6007    0.9176 H         1 <1>         0.0707 
     48 H22         8.2112    0.3181   -0.3117 H         1 <1>         0.0347 
     49 H23         6.6790   -0.4139   -0.8884 H         1 <1>         0.0347 
     50 H24         7.9279   -1.4397   -0.1180 H         1 <1>         0.0347 
@<TRIPOS>BOND
     1    2    1 1    
     2    2    3 1    
     3    2    4 1    
     4    4    5 1    
     5    5    6 2    
     6    5    7 1    
     7    7    8 2    
     8    8    9 1    
     9    8   10 1    
    10    2   10 1    
    11   10   11 1    
    12   11   12 2    
    13   12   13 1    
    14   13   14 1    
    15   14   15 2    
    16   14   16 1    
    17   16   17 1    
    18   13   18 2    
    19   18   19 1    
    20   19   20 1    
    21   20   21 1    
    22   21   22 2    
    23   22   23 1    
    24   22   24 1    
    25   24   25 2    
    26   24   26 1    
    27   20   26 1    
    28    1   27 1    
    29    1   28 1    
    30    1   29 1    
    31    3   30 1    
    32    3   31 1    
    33    3   32 1    
    34    4   33 1    
    35    4   34 1    
    36    7   35 1    
    37    9   36 1    
    38    9   37 1    
    39    9   38 1    
    40   10   39 1    
    41   11   40 1    
    42   12   41 1    
    43   17   42 1    
    44   17   43 1    
    45   17   44 1    
    46   18   45 1    
    47   20   46 1    
    48   21   47 1    
    49   23   48 1    
    50   23   49 1    
    51   23   50 1    
@<TRIPOS>SUBSTRUCTURE
     1 ****        2 TEMP              0 ****  ****    0 ROOT 
@<TRIPOS>NORMAL
@<TRIPOS>FF_PBC
FORCE_FIELD_SETUP_FEATURE Force Field Setup information
v1.0  0 0.000000 0.000000 0.000000 0.000000 0.000000 0.000000 NONE 0 0 0 0 1 0 0 0 0 0 0 0 0
