#	Name:			PISM00834.1
#	Creating user name:	baoopengkun
#	Creation time:		Fri Nov 30 18:47:00 2018

#	Modifying user name:	baoopengkun
#	Modification time:	Fri Nov 30 18:54:58 2018

@<TRIPOS>MOLECULE
PISM00834.1
   32    33     1     2     0
SMALL
GAST_HUCK


@<TRIPOS>ATOM
      1 C1        -11.9189    3.6970   15.0108 C.ar      1 <1>        -0.0620 
      2 C2        -12.5080    2.6722   14.2648 C.ar      1 <1>        -0.0537 
      3 C3        -13.7440    2.1366   14.6453 C.ar      1 <1>        -0.0037 
      4 C4        -14.4110    2.6817   15.7486 C.ar      1 <1>        -0.0537 
      5 C5        -13.8089    3.6817   16.5175 C.ar      1 <1>        -0.0620 
      6 C6        -12.5598    4.1890   16.1507 C.ar      1 <1>        -0.0626 
      7 C7        -14.3353    0.9775   13.8643 C.2       1 <1>         0.0701 
      8 C8        -14.3966    1.0265   12.3560 C.3       1 <1>         0.0408 
      9 N9        -14.9448    2.3169   11.8799 N.3       1 <1>        -0.3189 
     10 N10       -14.7850   -0.0863   14.4130 N.2       1 <1>        -0.1613 
     11 O11       -14.6441    0.0066   15.8102 O.3       1 <1>        -0.1992 
     12 C12       -13.5202   -0.7009   16.3460 C.3       1 <1>         0.2531 
     13 O13       -13.4709   -0.3999   17.7550 O.3       1 <1>        -0.2292 
     14 C14       -12.3868    0.3494   17.9117 C.2       1 <1>         0.2496 
     15 C15       -11.5665    0.5233   16.7193 C.2       1 <1>         0.0293 
     16 C16       -12.2382   -0.1390   15.7795 C.2       1 <1>         0.0004 
     17 C17       -10.2704    1.2763   16.5997 C.3       1 <1>        -0.0323 
     18 O18       -12.0906    0.8429   18.9862 O.2       1 <1>        -0.3691 
     19 H1        -10.9613    4.1091   14.7073 H         1 <1>         0.0615 
     20 H2        -11.9916    2.2909   13.3908 H         1 <1>         0.0618 
     21 H3        -15.4046    2.3337   16.0126 H         1 <1>         0.0618 
     22 H4        -14.3128    4.0657   17.3992 H         1 <1>         0.0615 
     23 H5        -12.0899    4.9640   16.7485 H         1 <1>         0.0611 
     24 H6        -15.0608    0.2204   12.0016 H         1 <1>         0.0589 
     25 H7        -13.3922    0.8410   11.9427 H         1 <1>         0.0589 
     26 H8        -15.0628    2.3114   10.8037 H         1 <1>         0.1207 
     27 H9        -14.3054    3.1418   12.1640 H         1 <1>         0.1207 
     28 H10       -13.6220   -1.7837   16.1735 H         1 <1>         0.1224 
     29 H11       -11.9205   -0.2495   14.7437 H         1 <1>         0.0707 
     30 H12       -10.3651    2.2503   17.1025 H         1 <1>         0.0347 
     31 H13       -10.0067    1.4424   15.5445 H         1 <1>         0.0347 
     32 H14        -9.4689    0.6998   17.0845 H         1 <1>         0.0347 
@<TRIPOS>BOND
     1    2    1 ar   
     2    2    3 ar   
     3    3    4 ar   
     4    4    5 ar   
     5    5    6 ar   
     6    1    6 ar   
     7    3    7 1    
     8    7    8 1    
     9    8    9 1    
    10    7   10 2    
    11   10   11 1    
    12   11   12 1    
    13   12   13 1    
    14   13   14 1    
    15   14   15 1    
    16   15   16 2    
    17   12   16 1    
    18   15   17 1    
    19   14   18 2    
    20    1   19 1    
    21    2   20 1    
    22    4   21 1    
    23    5   22 1    
    24    6   23 1    
    25    8   24 1    
    26    8   25 1    
    27    9   26 1    
    28    9   27 1    
    29   12   28 1    
    30   16   29 1    
    31   17   30 1    
    32   17   31 1    
    33   17   32 1    
@<TRIPOS>SUBSTRUCTURE
     1 ****        2 TEMP              0 ****  ****    0 ROOT 
@<TRIPOS>NORMAL
@<TRIPOS>FF_PBC
FORCE_FIELD_SETUP_FEATURE Force Field Setup information
v1.0  0 0.000000 0.000000 0.000000 0.000000 0.000000 0.000000 NONE 0 0 0 0 1 0 0 0 0 0 0 0 0
@<TRIPOS>RENDERING_ATTRS
ANTIALIASED_LINES 
*
