#	Name:			PISM00831
#	Creating user name:	baoopengkun
#	Creation time:		Fri Nov 30 18:13:30 2018

#	Modifying user name:	baoopengkun
#	Modification time:	Fri Nov 30 18:18:39 2018

@<TRIPOS>MOLECULE
PISM00831
   35    38     1     2     0
SMALL
GAST_HUCK


@<TRIPOS>ATOM
      1 C1        -18.1278    0.1933    5.6006 C.ar      1 <1>        -0.0639 
      2 C2        -17.6600    0.0626    4.2881 C.ar      1 <1>        -0.0754 
      3 C3        -16.3818    0.5179    3.9390 C.ar      1 <1>        -0.0755 
      4 C4        -15.5528    1.1137    4.8962 C.ar      1 <1>        -0.0666 
      5 C5        -16.0312    1.2447    6.2010 C.ar      1 <1>        -0.0356 
      6 C6        -17.2953    0.7900    6.5491 C.ar      1 <1>        -0.0055 
      7 C7        -17.6006    1.0216    8.0226 C.3       1 <1>         0.1326 
      8 C8        -16.1947    1.4142    8.5957 C.3       1 <1>         0.0641 
      9 C9        -15.3140    1.8606    7.3897 C.3       1 <1>        -0.0036 
     10 O10       -18.0501   -0.2304    8.5778 O.3       1 <1>        -0.2594 
     11 C11       -16.9740   -0.7789    9.1184 C.2       1 <1>         0.2795 
     12 C12       -15.8119    0.0953    9.2095 C.2       1 <1>         0.1489 
     13 O13       -16.9784   -1.9261    9.5320 O.2       1 <1>        -0.3569 
     14 N14       -14.7120   -0.2424    9.7583 N.2       1 <1>        -0.1364 
     15 O15       -13.8590    0.8754    9.7441 O.3       1 <1>        -0.1894 
     16 C16       -12.4936    0.4786    9.5758 C.3       1 <1>         0.2558 
     17 C17       -12.0411   -0.3034   10.7850 C.2       1 <1>         0.0007 
     18 C18       -11.0789    0.3539   11.4294 C.2       1 <1>         0.0293 
     19 C19       -10.8918    1.5587   10.6283 C.2       1 <1>         0.2496 
     20 O20       -11.6661    1.6584    9.5548 O.3       1 <1>        -0.2288 
     21 C21       -10.3423   -0.0511   12.6768 C.3       1 <1>        -0.0323 
     22 O22       -10.0767    2.4176   10.9168 O.2       1 <1>        -0.3691 
     23 H1        -19.1145   -0.1611    5.8803 H         1 <1>         0.0538 
     24 H2        -18.2933   -0.3963    3.5349 H         1 <1>         0.0541 
     25 H3        -16.0309    0.4081    2.9174 H         1 <1>         0.0541 
     26 H4        -14.5612    1.4676    4.6340 H         1 <1>         0.0537 
     27 H5        -18.3578    1.8175    8.1036 H         1 <1>         0.0824 
     28 H6        -16.2481    2.1703    9.3957 H         1 <1>         0.0540 
     29 H7        -14.2686    1.5242    7.4340 H         1 <1>         0.0438 
     30 H8        -15.3428    2.9547    7.2676 H         1 <1>         0.0438 
     31 H9        -12.3600   -0.0952    8.6446 H         1 <1>         0.1229 
     32 H10       -12.4523   -1.2662   11.0860 H         1 <1>         0.0707 
     33 H11       -10.2554   -1.1465   12.7351 H         1 <1>         0.0347 
     34 H12       -10.8894    0.3150   13.5582 H         1 <1>         0.0347 
     35 H13        -9.3326    0.3864   12.6747 H         1 <1>         0.0347 
@<TRIPOS>BOND
     1    2    1 ar   
     2    2    3 ar   
     3    3    4 ar   
     4    4    5 ar   
     5    5    6 ar   
     6    1    6 ar   
     7    6    7 1    
     8    7    8 1    
     9    8    9 1    
    10    5    9 1    
    11    7   10 1    
    12   10   11 1    
    13   11   12 1    
    14    8   12 1    
    15   11   13 2    
    16   12   14 2    
    17   14   15 1    
    18   15   16 1    
    19   16   17 1    
    20   17   18 2    
    21   18   19 1    
    22   19   20 1    
    23   16   20 1    
    24   18   21 1    
    25   19   22 2    
    26    1   23 1    
    27    2   24 1    
    28    3   25 1    
    29    4   26 1    
    30    7   27 1    
    31    8   28 1    
    32    9   29 1    
    33    9   30 1    
    34   16   31 1    
    35   17   32 1    
    36   21   33 1    
    37   21   34 1    
    38   21   35 1    
@<TRIPOS>SUBSTRUCTURE
     1 ****        2 TEMP              0 ****  ****    0 ROOT 
@<TRIPOS>NORMAL
@<TRIPOS>FF_PBC
FORCE_FIELD_SETUP_FEATURE Force Field Setup information
v1.0  0 0.000000 0.000000 0.000000 0.000000 0.000000 0.000000 NONE 0 0 0 0 1 0 0 0 0 0 0 0 0
@<TRIPOS>RENDERING_ATTRS
ANTIALIASED_LINES 
*
