#	Name:			PISM00786
#	Creating user name:	baoopengkun
#	Creation time:		Sat Dec 15 01:09:24 2018

#	Modifying user name:	baoopengkun
#	Modification time:	Sat Dec 15 01:14:22 2018

@<TRIPOS>MOLECULE
PISM00786
   38    41     1     1     0
SMALL
GAST_HUCK


@<TRIPOS>ATOM
      1 C1         12.1426   10.2945  -28.5227 C.ar      1 <1>        -0.0019 
      2 C2         11.1747    9.4771  -27.9169 C.ar      1 <1>        -0.0652 
      3 C3         11.5309    8.4694  -27.0099 C.ar      1 <1>        -0.0392 
      4 C4         12.8887    8.3085  -26.7320 C.ar      1 <1>         0.0688 
      5 C5         13.8374    9.1229  -27.3360 C.ar      1 <1>        -0.0065 
      6 C6         13.5044   10.1304  -28.2387 C.ar      1 <1>        -0.0600 
      7 C7         15.1189    8.5945  -26.7500 C.2       1 <1>        -0.0172 
      8 C8         14.7799    7.6031  -25.9333 C.2       1 <1>         0.1044 
      9 N9         13.4867    7.4179  -25.9047 N.pl3     1 <1>        -0.2662 
     10 C10        12.7988    6.4098  -25.1075 C.3       1 <1>         0.0372 
     11 C11        15.9886    7.0462  -25.3338 C.2       1 <1>         0.1398 
     12 O12        16.0858    6.1329  -24.5303 O.2       1 <1>        -0.4040 
     13 C13        17.0898    7.8373  -25.9139 C.2       1 <1>         0.0279 
     14 C14        16.5840    8.9059  -26.8671 C.3       1 <1>        -0.0034 
     15 C15        18.3833    7.6426  -25.6402 C.2       1 <1>         0.0829 
     16 O16        19.3024    8.4284  -26.2202 O.3       1 <1>        -0.2667 
     17 C17        20.6564    8.1197  -25.8444 C.3       1 <1>         0.2401 
     18 C18        20.8953    8.2948  -24.3631 C.2       1 <1>        -0.0007 
     19 C19        21.3438    7.1588  -23.8314 C.2       1 <1>         0.0293 
     20 C20        21.3858    6.2399  -24.9646 C.2       1 <1>         0.2496 
     21 O21        20.9825    6.7435  -26.1252 O.3       1 <1>        -0.2302 
     22 C22        21.7050    6.8773  -22.3986 C.3       1 <1>        -0.0323 
     23 O23        21.7601    5.0850  -24.8585 O.2       1 <1>        -0.3691 
     24 Br24       11.6144   11.6099  -29.7153 Br        1 <1>        -0.0605 
     25 H2         10.1268    9.6278  -28.1557 H         1 <1>         0.0572 
     26 H3         10.7805    7.8407  -26.5438 H         1 <1>         0.0551 
     27 H4         14.2667   10.7521  -28.6948 H         1 <1>         0.0598 
     28 H5         12.2385    5.7356  -25.7727 H         1 <1>         0.0555 
     29 H6         12.0973    6.9032  -24.4179 H         1 <1>         0.0555 
     30 H7         13.5043    5.8075  -24.5148 H         1 <1>         0.0555 
     31 H8         16.9499    8.7557  -27.8938 H         1 <1>         0.0475 
     32 H9         16.8126    9.9227  -26.5141 H         1 <1>         0.0475 
     33 H10        18.6200    6.8344  -24.9440 H         1 <1>         0.1132 
     34 H11        21.3384    8.7763  -26.4084 H         1 <1>         0.1214 
     35 H12        20.7233    9.2203  -23.8150 H         1 <1>         0.0706 
     36 H13        21.6209    5.7993  -22.1943 H         1 <1>         0.0347 
     37 H14        21.0308    7.4211  -21.7199 H         1 <1>         0.0347 
     38 H15        22.7407    7.1974  -22.2122 H         1 <1>         0.0347 
@<TRIPOS>BOND
     1    2    1 ar   
     2    2    3 ar   
     3    3    4 ar   
     4    4    5 ar   
     5    5    6 ar   
     6    1    6 ar   
     7    5    7 1    
     8    7    8 2    
     9    8    9 1    
    10    4    9 1    
    11    9   10 1    
    12    8   11 1    
    13   11   12 2    
    14   11   13 1    
    15   13   14 1    
    16    7   14 1    
    17   13   15 2    
    18   15   16 1    
    19   16   17 1    
    20   17   18 1    
    21   18   19 2    
    22   19   20 1    
    23   20   21 1    
    24   17   21 1    
    25   19   22 1    
    26   20   23 2    
    27    1   24 1    
    28    2   25 1    
    29    3   26 1    
    30    6   27 1    
    31   10   28 1    
    32   10   29 1    
    33   10   30 1    
    34   14   31 1    
    35   14   32 1    
    36   15   33 1    
    37   17   34 1    
    38   18   35 1    
    39   22   36 1    
    40   22   37 1    
    41   22   38 1    
@<TRIPOS>SUBSTRUCTURE
     1 ****        2 TEMP              0 ****  ****    0 ROOT 
@<TRIPOS>NORMAL
@<TRIPOS>FF_PBC
FORCE_FIELD_SETUP_FEATURE Force Field Setup information
v1.0  0 0.000000 0.000000 0.000000 0.000000 0.000000 0.000000 NONE 0 0 0 0 1 0 0 0 0 0 0 0 0
