#	Name:			PISM00188
#	Creating user name:	14062
#	Creation time:		Sun Mar 31 18:26:57 2019

#	Modifying user name:	14062
#	Modification time:	Sun Mar 31 18:39:16 2019

@<TRIPOS>MOLECULE
PISM00188
   40    41     1     2     0
SMALL
GAST_HUCK


@<TRIPOS>ATOM
      1 C1         -3.5736   -5.4590   -0.9596 C.ar      1 <1>        -0.0768 
      2 C2         -2.5443   -6.4122   -0.8964 C.ar      1 <1>        -0.0748 
      3 C3         -1.2047   -6.0245   -0.7490 C.ar      1 <1>        -0.0467 
      4 C4         -0.9349   -4.6583   -0.6761 C.ar      1 <1>         0.0450 
      5 C5         -1.9534   -3.7314   -0.7647 C.ar      1 <1>        -0.0185 
      6 C6         -3.2949   -4.0880   -0.8919 C.ar      1 <1>        -0.0716 
      7 C7         -1.1855   -2.4418   -0.6866 C.2       1 <1>        -0.0224 
      8 C8          0.1108   -2.7716   -0.5501 C.2       1 <1>         0.0040 
      9 N9          0.3476   -4.0936   -0.5148 N.3       1 <1>        -0.2350 
     10 C10        -1.8057   -1.0679   -0.7667 C.3       1 <1>         0.0784 
     11 C11        -0.8226   -0.0321   -0.2780 C.2       1 <1>         0.2403 
     12 O12        -0.0928    0.5851   -1.0370 O.2       1 <1>        -0.3685 
     13 O13        -0.7883    0.1618    1.0404 O.3       1 <1>        -0.2916 
     14 C14        -2.2687   -0.7993   -2.2270 C.3       1 <1>        -0.0271 
     15 C15        -4.8865    2.2983   -5.3737 C.3       1 <1>        -0.0559 
     16 C16        -5.5501    3.6898   -5.5473 C.3       1 <1>        -0.0653 
     17 H1         -4.6021   -5.7899   -1.0632 H         1 <1>         0.0524 
     18 H2         -2.7872   -7.4688   -0.9628 H         1 <1>         0.0543 
     19 H3         -0.4040   -6.7543   -0.6965 H         1 <1>         0.0548 
     20 H4         -4.0805   -3.3407   -0.9367 H         1 <1>         0.0551 
     21 H5          0.9150   -2.0377   -0.4801 H         1 <1>         0.0760 
     22 H6          0.7432   -4.3702    0.4540 H         1 <1>         0.1886 
     23 H7         -2.6804   -1.0587   -0.0963 H         1 <1>         0.0644 
     24 H8         -0.1509    0.8287    1.2712 H         1 <1>         0.2540 
     25 H9         -2.9280   -1.6189   -2.5541 H         1 <1>         0.0308 
     26 C26        -3.0462    0.5407   -2.3516 C.3       1 <1>        -0.0495 
     27 H10        -1.3902   -0.7866   -2.8930 H         1 <1>         0.0308 
     28 H11        -5.6396    1.5168   -5.5689 H         1 <1>         0.0263 
     29 C29        -3.5741    0.7525   -3.7970 C.3       1 <1>        -0.0528 
     30 H12        -4.0812    2.1935   -6.1196 H         1 <1>         0.0263 
     31 C31        -4.3051    2.1146   -3.9443 C.3       1 <1>        -0.0533 
     32 H13        -5.9745    3.7849   -6.5598 H         1 <1>         0.0230 
     33 H14        -4.8060    4.4891   -5.4039 H         1 <1>         0.0230 
     34 H15        -6.3603    3.8263   -4.8140 H         1 <1>         0.0230 
     35 H16        -2.3843    1.3783   -2.0786 H         1 <1>         0.0268 
     36 H17        -3.8994    0.5351   -1.6536 H         1 <1>         0.0268 
     37 H18        -4.2729   -0.0611   -4.0505 H         1 <1>         0.0265 
     38 H19        -2.7295    0.7159   -4.5043 H         1 <1>         0.0265 
     39 H20        -3.5943    2.9286   -3.7302 H         1 <1>         0.0265 
     40 H21        -5.1256    2.1732   -3.2110 H         1 <1>         0.0265 
@<TRIPOS>BOND
     1    2    1 ar   
     2    2    3 ar   
     3    3    4 ar   
     4    4    5 ar   
     5    5    6 ar   
     6    1    6 ar   
     7    5    7 1    
     8    7    8 2    
     9    8    9 1    
    10    4    9 1    
    11    7   10 1    
    12   10   11 1    
    13   11   12 2    
    14   11   13 1    
    15   10   14 1    
    16   31   15 1    
    17   15   16 1    
    18    1   17 1    
    19    2   18 1    
    20    3   19 1    
    21    6   20 1    
    22    8   21 1    
    23    9   22 1    
    24   10   23 1    
    25   13   24 1    
    26   14   25 1    
    27   14   26 1    
    28   14   27 1    
    29   15   28 1    
    30   26   29 1    
    31   15   30 1    
    32   29   31 1    
    33   16   32 1    
    34   16   33 1    
    35   16   34 1    
    36   26   35 1    
    37   26   36 1    
    38   29   37 1    
    39   29   38 1    
    40   31   39 1    
    41   31   40 1    
@<TRIPOS>SUBSTRUCTURE
     1 ****        2 TEMP              0 ****  ****    0 ROOT 
@<TRIPOS>NORMAL
@<TRIPOS>FF_PBC
FORCE_FIELD_SETUP_FEATURE Force Field Setup information
v1.0  0 0.000000 0.000000 0.000000 0.000000 0.000000 0.000000 NONE 0 0 0 0 1 0 0 0 0 0 0 0 0
@<TRIPOS>RENDERING_ATTRS
ANTIALIASED_LINES 
*
