#	Name:			PISM00882
#	Creating user name:	baoopengkun
#	Creation time:		Fri Dec 14 09:30:18 2018

#	Modifying user name:	baoopengkun
#	Modification time:	Fri Dec 14 09:34:14 2018

@<TRIPOS>MOLECULE
PISM00882
   29    31     1     1     0
SMALL
GAST_HUCK


@<TRIPOS>ATOM
      1 C1          4.9090   -3.1970   -5.7414 C.ar      1 <1>        -0.0661 
      2 C2          4.6499   -2.4170   -6.8716 C.ar      1 <1>        -0.0661 
      3 C3          4.2648   -1.0827   -6.7182 C.ar      1 <1>        -0.0661 
      4 C4          4.1462   -0.5323   -5.4383 C.ar      1 <1>        -0.0601 
      5 C5          4.4107   -1.3041   -4.3010 C.ar      1 <1>        -0.0196 
      6 C6          4.7881   -2.6436   -4.4626 C.ar      1 <1>        -0.0601 
      7 C7          4.2784   -0.6523   -2.9392 C.2       1 <1>         0.0704 
      8 N8          3.8925    0.7277   -2.7662 N.2       1 <1>        -0.2162 
      9 N9          3.9129    0.8818   -1.4318 N.2       1 <1>        -0.0855 
     10 N10         4.2601   -0.2742   -0.8289 N.pl3     1 <1>        -0.1231 
     11 C11         4.4833   -1.1898   -1.7318 C.2       1 <1>         0.0936 
     12 C12         4.3985   -0.4224    0.6140 C.3       1 <1>         0.2444 
     13 C13         5.5172   -1.3591    1.0127 C.2       1 <1>         0.0018 
     14 C14         6.4746   -0.7028    1.6652 C.2       1 <1>         0.0295 
     15 C15         5.9693    0.6637    1.7220 C.2       1 <1>         0.2498 
     16 O16         4.7778    0.8546    1.1692 O.3       1 <1>        -0.2283 
     17 O17         6.5911    1.5709    2.2475 O.2       1 <1>        -0.3691 
     18 C18         7.7608   -1.2480    2.2243 C.3       1 <1>        -0.0323 
     19 H1          5.2051   -4.2352   -5.8577 H         1 <1>         0.0606 
     20 H2          4.7469   -2.8461   -7.8640 H         1 <1>         0.0581 
     21 H3          4.0576   -0.4733   -7.5930 H         1 <1>         0.0606 
     22 H4          3.8462    0.5061   -5.3335 H         1 <1>         0.0581 
     23 H5          4.9934   -3.2735   -3.6054 H         1 <1>         0.0581 
     24 H6          4.7851   -2.2149   -1.5356 H         1 <1>         0.1081 
     25 H7          3.4360   -0.7392    1.0448 H         1 <1>         0.1244 
     26 H8          5.5509   -2.4270    0.8026 H         1 <1>         0.0709 
     27 H9          7.5585   -2.1563    2.8116 H         1 <1>         0.0347 
     28 H10         8.2399   -0.5010    2.8749 H         1 <1>         0.0347 
     29 H11         8.4474   -1.4969    1.4015 H         1 <1>         0.0347 
@<TRIPOS>BOND
     1    2    1 ar   
     2    2    3 ar   
     3    3    4 ar   
     4    4    5 ar   
     5    5    6 ar   
     6    1    6 ar   
     7    5    7 1    
     8    7    8 1    
     9    8    9 2    
    10    9   10 1    
    11   10   11 1    
    12    7   11 2    
    13   10   12 1    
    14   12   13 1    
    15   13   14 2    
    16   14   15 1    
    17   15   16 1    
    18   12   16 1    
    19   15   17 2    
    20   14   18 1    
    21    1   19 1    
    22    2   20 1    
    23    3   21 1    
    24    4   22 1    
    25    6   23 1    
    26   11   24 1    
    27   12   25 1    
    28   13   26 1    
    29   18   27 1    
    30   18   28 1    
    31   18   29 1    
@<TRIPOS>SUBSTRUCTURE
     1 ****        2 TEMP              0 ****  ****    0 ROOT 
@<TRIPOS>NORMAL
@<TRIPOS>FF_PBC
FORCE_FIELD_SETUP_FEATURE Force Field Setup information
v1.0  0 0.000000 0.000000 0.000000 0.000000 0.000000 0.000000 NONE 0 0 0 0 1 0 0 0 0 0 0 0 0
