#	Name:			PISM00955.2
#	Creating user name:	baoopengkun
#	Creation time:		Thu Dec 13 10:20:57 2018

#	Modifying user name:	baoopengkun
#	Modification time:	Thu Dec 13 10:26:13 2018

@<TRIPOS>MOLECULE
PISM00955.2
   38    39     1     1     0
SMALL
GAST_HUCK


@<TRIPOS>ATOM
      1 C1         -9.7742    9.3918   -3.1364 C.3       1 <1>        -0.0575 
      2 C2        -11.0241   10.0285   -2.4582 C.3       1 <1>        -0.0059 
      3 C3        -11.0814   11.5290   -2.8858 C.3       1 <1>        -0.0575 
      4 C4        -10.8381    9.9671   -0.9121 C.3       1 <1>        -0.0575 
      5 C5        -12.3664    9.3477   -2.9047 C.3       1 <1>         0.1219 
      6 C6        -12.5449    7.8425   -2.5487 C.3       1 <1>         0.2332 
      7 N7        -11.5785    6.9724   -3.2026 N.pl3     1 <1>        -0.1431 
      8 N8        -11.1260    7.0792   -4.4842 N.2       1 <1>        -0.1875 
      9 C9        -10.2710    6.1775   -4.7943 C.2       1 <1>         0.0619 
     10 N10       -10.1939    5.4460   -3.5599 N.2       1 <1>        -0.2869 
     11 C11       -10.9577    5.9489   -2.7008 C.2       1 <1>         0.1311 
     12 O12       -13.4396   10.0839   -2.2800 O.3       1 <1>        -0.3851 
     13 O13       -13.8691    7.3934   -2.9033 O.3       1 <1>        -0.2786 
     14 C14       -14.0693    7.1198   -4.2589 C.ar      1 <1>         0.0956 
     15 C15       -13.7125    5.8701   -4.7745 C.ar      1 <1>        -0.0323 
     16 C16       -13.8502    5.6045   -6.1398 C.ar      1 <1>        -0.0567 
     17 C17       -14.3724    6.5823   -6.9904 C.ar      1 <1>         0.0285 
     18 C18       -14.7698    7.8175   -6.4713 C.ar      1 <1>        -0.0567 
     19 C19       -14.6302    8.0813   -5.1054 C.ar      1 <1>        -0.0323 
     20 Cl20      -14.5303    6.2594   -8.7048 Cl        1 <1>        -0.0810 
     21 H1         -9.5919    8.3717   -2.7733 H         1 <1>         0.0236 
     22 H2         -8.8710    9.9783   -2.9084 H         1 <1>         0.0236 
     23 H3         -9.8949    9.3670   -4.2299 H         1 <1>         0.0236 
     24 H4        -11.9179   12.0503   -2.3962 H         1 <1>         0.0236 
     25 H5        -11.2118   11.6166   -3.9755 H         1 <1>         0.0236 
     26 H6        -10.1550   12.0570   -2.6116 H         1 <1>         0.0236 
     27 H7        -10.6717    8.9371   -0.5652 H         1 <1>         0.0236 
     28 H8        -11.7213   10.3723   -0.3953 H         1 <1>         0.0236 
     29 H9         -9.9624   10.5608   -0.6076 H         1 <1>         0.0236 
     30 H10       -12.4474    9.4363   -4.0007 H         1 <1>         0.0661 
     31 H11       -12.4952    7.7440   -1.4551 H         1 <1>         0.1080 
     32 H12        -9.7476    6.0137   -5.7351 H         1 <1>         0.0864 
     33 H13       -11.0663    5.5618   -1.6882 H         1 <1>         0.1362 
     34 H14       -14.3055    9.7473   -2.4880 H         1 <1>         0.2101 
     35 H15       -13.3249    5.1051   -4.1103 H         1 <1>         0.0543 
     36 H16       -13.5519    4.6411   -6.5402 H         1 <1>         0.0595 
     37 H17       -15.1872    8.5709   -7.1316 H         1 <1>         0.0595 
     38 H18       -14.9607    9.0338   -4.7087 H         1 <1>         0.0543 
@<TRIPOS>BOND
     1    2    1 1    
     2    2    3 1    
     3    2    4 1    
     4    2    5 1    
     5    5    6 1    
     6    6    7 1    
     7    7    8 1    
     8    8    9 2    
     9    9   10 1    
    10   10   11 2    
    11    7   11 1    
    12    5   12 1    
    13    6   13 1    
    14   13   14 1    
    15   14   15 ar   
    16   15   16 ar   
    17   16   17 ar   
    18   17   18 ar   
    19   18   19 ar   
    20   14   19 ar   
    21   17   20 1    
    22    1   21 1    
    23    1   22 1    
    24    1   23 1    
    25    3   24 1    
    26    3   25 1    
    27    3   26 1    
    28    4   27 1    
    29    4   28 1    
    30    4   29 1    
    31    5   30 1    
    32    6   31 1    
    33    9   32 1    
    34   11   33 1    
    35   12   34 1    
    36   15   35 1    
    37   16   36 1    
    38   18   37 1    
    39   19   38 1    
@<TRIPOS>SUBSTRUCTURE
     1 ****        2 TEMP              0 ****  ****    0 ROOT 
@<TRIPOS>NORMAL
@<TRIPOS>FF_PBC
FORCE_FIELD_SETUP_FEATURE Force Field Setup information
v1.0  0 0.000000 0.000000 0.000000 0.000000 0.000000 0.000000 NONE 0 0 0 0 1 0 0 0 0 0 0 0 0
