#	Name:			PISM00942.1
#	Creating user name:	baoopengkun
#	Creation time:		Wed Dec 12 22:41:34 2018

#	Modifying user name:	baoopengkun
#	Modification time:	Wed Dec 12 23:14:55 2018

@<TRIPOS>MOLECULE
PISM00942.1
   20    20     1     2     0
SMALL
GAST_HUCK


@<TRIPOS>ATOM
      1 C1          4.3957   -4.7628    5.2130 C.3       1 <1>         0.0211 
      2 C2          3.4029   -5.7519    5.7586 C.2       1 <1>         0.1065 
      3 C3          3.5709   -6.6827    6.6957 C.2       1 <1>         0.0033 
      4 C4          2.2944   -7.4510    6.9437 C.3       1 <1>         0.1539 
      5 O5          1.3512   -6.8946    6.0059 O.3       1 <1>        -0.3014 
      6 C6          2.0055   -5.9253    5.3771 C.2       1 <1>         0.3142 
      7 C7          4.8147   -7.0080    7.4824 C.3       1 <1>        -0.0314 
      8 C8          2.4412   -8.9736    6.7150 C.3       1 <1>        -0.0504 
      9 O9          1.4742   -5.2297    4.5278 O.2       1 <1>        -0.3160 
     10 O10         1.8501   -7.1417    8.2666 O.3       1 <1>        -0.4270 
     11 H1          5.2673   -5.2954    4.8043 H         1 <1>         0.0617 
     12 H2          4.7260   -4.0870    6.0159 H         1 <1>         0.0617 
     13 H3          3.9371   -4.1645    4.4113 H         1 <1>         0.0617 
     14 H4          5.6081   -6.2684    7.3007 H         1 <1>         0.0389 
     15 H5          5.1914   -8.0008    7.1959 H         1 <1>         0.0389 
     16 H6          4.5786   -7.0106    8.5572 H         1 <1>         0.0389 
     17 H7          0.9878   -7.5082    8.4288 H         1 <1>         0.1890 
     18 H8          2.8527   -9.1634    5.7121 H         1 <1>         0.0121 
     19 H9          1.4562   -9.4580    6.7917 H         1 <1>         0.0121 
     20 H10         3.1098   -9.4121    7.4706 H         1 <1>         0.0121 
@<TRIPOS>BOND
     1    2    1 1    
     2    2    3 2    
     3    3    4 1    
     4    4    5 1    
     5    5    6 1    
     6    2    6 1    
     7    3    7 1    
     8    4    8 1    
     9    6    9 2    
    10    4   10 1    
    11    1   11 1    
    12    1   12 1    
    13    1   13 1    
    14    7   14 1    
    15    7   15 1    
    16    7   16 1    
    17   10   17 1    
    18    8   18 1    
    19    8   19 1    
    20    8   20 1    
@<TRIPOS>SUBSTRUCTURE
     1 ****        2 TEMP              0 ****  ****    0 ROOT 
@<TRIPOS>NORMAL
@<TRIPOS>FF_PBC
FORCE_FIELD_SETUP_FEATURE Force Field Setup information
v1.0  0 0.000000 0.000000 0.000000 0.000000 0.000000 0.000000 NONE 0 0 0 0 1 0 0 0 0 0 0 0 0
@<TRIPOS>RENDERING_ATTRS
ANTIALIASED_LINES 
1,2,3,4,5,6,7,8,9,10,11,12,13,14,15,16,17
