#	Name:			PISM00883.1
#	Creating user name:	baoopengkun
#	Creation time:		Fri Dec 14 09:30:18 2018

#	Modifying user name:	baoopengkun
#	Modification time:	Fri Dec 14 09:35:46 2018

@<TRIPOS>MOLECULE
PISM00883.1
   38    40     1     1     0
SMALL
GAST_HUCK


@<TRIPOS>ATOM
      1 C1         -0.1875    4.2550    3.4243 C.ar      1 <1>        -0.0686 
      2 C2         -1.0492    5.0650    2.6789 C.ar      1 <1>        -0.0620 
      3 C3         -1.4272    4.6583    1.3964 C.ar      1 <1>        -0.0686 
      4 C4         -0.9146    3.4811    0.8396 C.ar      1 <1>        -0.0540 
      5 C5         -0.0333    2.6871    1.5868 C.ar      1 <1>        -0.0205 
      6 C6          0.2734    3.0380    2.9098 C.ar      1 <1>        -0.0540 
      7 C7          0.5763    1.4588    0.9454 C.2       1 <1>         0.0579 
      8 N8         -0.1709    0.5031    0.1639 N.2       1 <1>        -0.2220 
      9 N9          0.7671   -0.3939   -0.1839 N.2       1 <1>        -0.0894 
     10 N10         1.9676   -0.0301    0.3144 N.pl3     1 <1>        -0.1282 
     11 C11         1.8560    1.0782    0.9911 C.2       1 <1>         0.0854 
     12 C12         3.1878   -0.7981    0.1407 C.3       1 <1>         0.2430 
     13 C13         2.8940   -2.2406    0.4751 C.2       1 <1>         0.0015 
     14 C14         3.6035   -2.6301    1.5323 C.2       1 <1>         0.0295 
     15 C15         4.3745   -1.4423    1.8817 C.2       1 <1>         0.2498 
     16 O16         4.1910   -0.3898    1.0944 O.3       1 <1>        -0.2285 
     17 O17         5.1423   -1.4110    2.8275 O.2       1 <1>        -0.3691 
     18 C18         3.6032   -3.9713    2.2135 C.3       1 <1>        -0.0323 
     19 C19        -1.3162    3.0777   -0.5871 C.3       1 <1>        -0.0347 
     20 C20         1.0879    2.1186    3.8328 C.3       1 <1>        -0.0347 
     21 C21        -1.5857    6.3854    3.2454 C.3       1 <1>        -0.0355 
     22 H1          0.1245    4.5715    4.4140 H         1 <1>         0.0433 
     23 H2         -2.1232    5.2701    0.8322 H         1 <1>         0.0433 
     24 H3          2.6580    1.6082    1.5019 H         1 <1>         0.1015 
     25 H4          3.5623   -0.6862   -0.8891 H         1 <1>         0.1241 
     26 H5          2.1908   -2.8686   -0.0708 H         1 <1>         0.0709 
     27 H6          2.5817   -4.3790    2.2512 H         1 <1>         0.0347 
     28 H7          3.9852   -3.8738    3.2408 H         1 <1>         0.0347 
     29 H8          4.2487   -4.6657    1.6558 H         1 <1>         0.0347 
     30 H9         -1.8287    3.8944   -1.1168 H         1 <1>         0.0387 
     31 H10        -1.9968    2.2148   -0.5385 H         1 <1>         0.0387 
     32 H11        -0.4238    2.8057   -1.1706 H         1 <1>         0.0387 
     33 H12         0.7396    2.2186    4.8720 H         1 <1>         0.0387 
     34 H13         2.1491    2.4045    3.7926 H         1 <1>         0.0387 
     35 H14         0.9787    1.0607    3.5522 H         1 <1>         0.0387 
     36 H15        -2.6712    6.4496    3.0762 H         1 <1>         0.0385 
     37 H16        -1.0912    7.2215    2.7289 H         1 <1>         0.0385 
     38 H17        -1.3978    6.4737    4.3260 H         1 <1>         0.0385 
@<TRIPOS>BOND
     1    2    1 ar   
     2    2    3 ar   
     3    3    4 ar   
     4    4    5 ar   
     5    5    6 ar   
     6    1    6 ar   
     7    5    7 1    
     8    7    8 1    
     9    8    9 2    
    10    9   10 1    
    11   10   11 1    
    12    7   11 2    
    13   10   12 1    
    14   12   13 1    
    15   13   14 2    
    16   14   15 1    
    17   15   16 1    
    18   12   16 1    
    19   15   17 2    
    20   14   18 1    
    21    4   19 1    
    22    6   20 1    
    23    2   21 1    
    24    1   22 1    
    25    3   23 1    
    26   11   24 1    
    27   12   25 1    
    28   13   26 1    
    29   18   27 1    
    30   18   28 1    
    31   18   29 1    
    32   19   30 1    
    33   19   31 1    
    34   19   32 1    
    35   20   33 1    
    36   20   34 1    
    37   20   35 1    
    38   21   36 1    
    39   21   37 1    
    40   21   38 1    
@<TRIPOS>SUBSTRUCTURE
     1 ****        2 TEMP              0 ****  ****    0 ROOT 
@<TRIPOS>NORMAL
@<TRIPOS>FF_PBC
FORCE_FIELD_SETUP_FEATURE Force Field Setup information
v1.0  0 0.000000 0.000000 0.000000 0.000000 0.000000 0.000000 NONE 0 0 0 0 1 0 0 0 0 0 0 0 0
