#	Name:			PISM00241
#	Creating user name:	14062
#	Creation time:		Tue Jun 18 22:57:14 2019

#	Modifying user name:	14062
#	Modification time:	Tue Jun 18 22:58:54 2019

@<TRIPOS>MOLECULE
PISM00241
   25    26     1     1     0
SMALL
NO_CHARGES


@<TRIPOS>ATOM
      1 C1         -0.1900    0.0430   -0.1411 C.ar      1 <1>         0.0000 
      2 C2         -0.7666   -1.0034   -0.8735 C.ar      1 <1>         0.0000 
      3 C3         -0.0334   -2.1558   -1.2139 C.ar      1 <1>         0.0000 
      4 C4          1.3016   -2.2920   -0.8100 C.ar      1 <1>         0.0000 
      5 C5          1.8608   -1.2424   -0.0838 C.ar      1 <1>         0.0000 
      6 C6          1.1422   -0.1090    0.2405 C.ar      1 <1>         0.0000 
      7 C7          3.2109   -0.9659    0.5273 C.2       1 <1>         0.0000 
      8 C8          3.1314    0.2441    1.1094 C.2       1 <1>         0.0000 
      9 N9          1.9291    0.7329    0.9381 N.pl3     1 <1>         0.0000 
     10 O10        -0.6170   -3.1868   -1.9577 O.3       1 <1>         0.0000 
     11 C11         4.3793   -1.9167    0.4576 C.3       1 <1>         0.0000 
     12 C12         5.6701   -1.3937    1.1386 C.3       1 <1>         0.0000 
     13 N13         6.7653   -2.3743    0.9770 N.3       1 <1>         0.0000 
     14 H1         -0.7511    0.9335    0.1208 H         1 <1>         0.0000 
     15 H2         -1.8042   -0.9101   -1.1786 H         1 <1>         0.0000 
     16 H3          1.8799   -3.1768   -1.0521 H         1 <1>         0.0000 
     17 H4          3.9295    0.7559    1.6457 H         1 <1>         0.0000 
     18 H5          1.6208    1.6499    1.2948 H         1 <1>         0.0000 
     19 H6         -1.4740   -2.9798   -2.3133 H         1 <1>         0.0000 
     20 H7          4.5924   -2.1174   -0.6040 H         1 <1>         0.0000 
     21 H8          4.0733   -2.8611    0.9344 H         1 <1>         0.0000 
     22 H9          5.4839   -1.2039    2.2094 H         1 <1>         0.0000 
     23 H10         5.9715   -0.4483    0.6580 H         1 <1>         0.0000 
     24 H11         6.5171   -3.3092    1.4609 H         1 <1>         0.0000 
     25 H12         7.6871   -1.9898    1.3934 H         1 <1>         0.0000 
@<TRIPOS>BOND
     1    2    1 ar   
     2    2    3 ar   
     3    3    4 ar   
     4    4    5 ar   
     5    5    6 ar   
     6    1    6 ar   
     7    5    7 1    
     8    7    8 2    
     9    8    9 1    
    10    6    9 1    
    11    3   10 1    
    12    7   11 1    
    13   11   12 1    
    14   12   13 1    
    15    1   14 1    
    16    2   15 1    
    17    4   16 1    
    18    8   17 1    
    19    9   18 1    
    20   10   19 1    
    21   11   20 1    
    22   11   21 1    
    23   12   22 1    
    24   12   23 1    
    25   13   24 1    
    26   13   25 1    
@<TRIPOS>SUBSTRUCTURE
     1 ****        2 TEMP              0 ****  ****    0 ROOT 
@<TRIPOS>NORMAL
@<TRIPOS>FF_PBC
FORCE_FIELD_SETUP_FEATURE Force Field Setup information
v1.0  0 0.000000 0.000000 0.000000 0.000000 0.000000 0.000000 NONE 0 0 0 0 0 0 0 0 0 0 0 0 0
