#	Name:			PISM01128
#	Creating user name:	14062
#	Creation time:		Sun Mar 31 15:38:02 2019

#	Modifying user name:	14062
#	Modification time:	Sun Mar 31 15:40:51 2019

@<TRIPOS>MOLECULE
PISM01128
   26    27     1     1     0
SMALL
GAST_HUCK


@<TRIPOS>ATOM
      1 C1         -0.1135    7.9944  -10.0245 C.ar      1 <1>        -0.0479 
      2 C2          0.6571    6.8287   -9.9758 C.ar      1 <1>        -0.0516 
      3 C3          0.6245    5.9995   -8.8466 C.ar      1 <1>         0.0165 
      4 C4         -0.1960    6.3626   -7.7713 C.ar      1 <1>        -0.0378 
      5 C5         -0.9689    7.5262   -7.8161 C.ar      1 <1>         0.0538 
      6 C6         -0.9283    8.3467   -8.9463 C.ar      1 <1>         0.0533 
      7 C7          1.4390    4.7245   -8.7377 C.2       1 <1>         0.1300 
      8 C8          2.2755    4.2706   -9.6756 C.2       1 <1>        -0.0403 
      9 C9          2.7943    3.0357   -9.0921 C.2       1 <1>        -0.0411 
     10 C10         2.1786    2.9661   -7.9089 C.2       1 <1>         0.1257 
     11 O11         1.3406    3.9706   -7.6377 O.3       1 <1>        -0.2492 
     12 C12         2.3553    1.8899   -6.9129 C.2       1 <1>        -0.0131 
     13 C13         3.1265    0.8024   -7.0463 C.2       1 <1>         0.0140 
     14 C14         3.2525   -0.2335   -6.0043 C.2       1 <1>         0.2374 
     15 O15         2.6465   -0.1181   -4.9506 O.2       1 <1>        -0.3702 
     16 O16         4.0304   -1.2949   -6.2200 O.3       1 <1>        -0.2982 
     17 Cl17       -1.9849    7.9480   -6.4520 Cl        1 <1>        -0.0704 
     18 Cl18       -1.8897    9.8100   -9.0199 Cl        1 <1>        -0.0705 
     19 H1         -0.0811    8.6312  -10.9031 H         1 <1>         0.0620 
     20 H2          1.2754    6.5867  -10.8312 H         1 <1>         0.0617 
     21 H3         -0.2423    5.7407   -6.8836 H         1 <1>         0.0623 
     22 H4          2.5504    4.6671  -10.6506 H         1 <1>         0.0434 
     23 H5          3.5144    2.3636   -9.5551 H         1 <1>         0.0476 
     24 H6          1.7901    2.0187   -5.9895 H         1 <1>         0.0738 
     25 H7          3.7070    0.6294   -7.9498 H         1 <1>         0.0578 
     26 H8          4.0259   -1.8875   -5.4762 H         1 <1>         0.2509 
@<TRIPOS>BOND
     1    2    1 ar   
     2    2    3 ar   
     3    3    4 ar   
     4    4    5 ar   
     5    5    6 ar   
     6    1    6 ar   
     7    3    7 1    
     8    7    8 2    
     9    8    9 1    
    10    9   10 2    
    11   10   11 1    
    12    7   11 1    
    13   10   12 1    
    14   12   13 2    
    15   13   14 1    
    16   14   15 2    
    17   14   16 1    
    18    5   17 1    
    19    6   18 1    
    20    1   19 1    
    21    2   20 1    
    22    4   21 1    
    23    8   22 1    
    24    9   23 1    
    25   12   24 1    
    26   13   25 1    
    27   16   26 1    
@<TRIPOS>SUBSTRUCTURE
     1 ****        2 TEMP              0 ****  ****    0 ROOT 
@<TRIPOS>NORMAL
@<TRIPOS>FF_PBC
FORCE_FIELD_SETUP_FEATURE Force Field Setup information
v1.0  0 0.000000 0.000000 0.000000 0.000000 0.000000 0.000000 NONE 0 0 0 0 1 0 0 0 0 0 0 0 0
