#	Name:			PISM00624
#	Creating user name:	baoopengkun
#	Creation time:		Mon Dec 10 11:20:31 2018

#	Modifying user name:	baoopengkun
#	Modification time:	Mon Dec 10 11:20:46 2018

@<TRIPOS>MOLECULE
PISM00624
   57    60     1     2     0
SMALL
GAST_HUCK


@<TRIPOS>ATOM
      1 C1         14.2767   -0.0617  -27.7784 C.ar      1 <1>        -0.0348 
      2 C2         14.3445   -1.3601  -27.2651 C.ar      1 <1>        -0.0180 
      3 C3         13.5266   -2.3616  -27.7941 C.ar      1 <1>         0.0714 
      4 C4         12.6076   -2.0526  -28.8003 C.ar      1 <1>        -0.0180 
      5 C5         12.5243   -0.7482  -29.2955 C.ar      1 <1>        -0.0348 
      6 C6         13.3844    0.2422  -28.8120 C.ar      1 <1>         0.0068 
      7 C7         13.3525    1.6603  -29.3982 C.3       1 <1>         0.1921 
      8 C8         12.3714    2.5336  -28.5839 C.3       1 <1>         0.1073 
      9 N9         12.4701    2.2426  -27.1607 N.pl3     1 <1>        -0.1814 
     10 N10        13.2296    2.9004  -26.2412 N.2       1 <1>        -0.1908 
     11 C11        13.0942    2.4393  -25.0532 C.2       1 <1>         0.0618 
     12 N12        12.1420    1.3864  -25.2803 N.2       1 <1>        -0.2870 
     13 C13        11.8270    1.3346  -26.4930 C.2       1 <1>         0.1270 
     14 O14        14.6654    2.2334  -29.4516 O.3       1 <1>        -0.3814 
     15 C15        15.3426    1.5781  -30.5264 C.3       1 <1>         0.0672 
     16 C16        14.1991    1.4721  -31.5625 C.3       1 <1>         0.1000 
     17 O17        13.0006    1.6580  -30.7909 O.3       1 <1>        -0.3758 
     18 C18        14.1931    0.1367  -32.3518 C.3       1 <1>         0.0952 
     19 O19        14.1221   -0.9906  -31.4613 O.3       1 <1>        -0.3192 
     20 C20        14.0614   -2.2217  -32.1155 C.ar      1 <1>         0.1199 
     21 C21        12.8228   -2.8295  -32.3311 C.ar      1 <1>        -0.0415 
     22 C22        12.7498   -4.0340  -33.0357 C.ar      1 <1>        -0.0819 
     23 C23        13.9140   -4.6159  -33.5471 C.ar      1 <1>        -0.0819 
     24 C24        15.1532   -4.0089  -33.3266 C.ar      1 <1>        -0.0414 
     25 C25        15.2334   -2.8427  -32.5599 C.ar      1 <1>         0.1204 
     26 O26        16.4747   -2.2901  -32.2424 O.3       1 <1>        -0.3162 
     27 C27        17.1401   -2.8023  -31.0699 C.3       1 <1>         0.0811 
     28 C28        17.6844   -4.2340  -31.3276 C.3       1 <1>        -0.0323 
     29 Cl29       13.6577   -4.0028  -27.1969 Cl        1 <1>        -0.0420 
     30 H1         14.9189    0.7135  -27.3713 H         1 <1>         0.0849 
     31 H2         15.0322   -1.5932  -26.4585 H         1 <1>         0.0703 
     32 H3         11.9603   -2.8289  -29.1970 H         1 <1>         0.0703 
     33 H4         11.7962   -0.5040  -30.0632 H         1 <1>         0.0849 
     34 H5         11.3447    2.3346  -28.9276 H         1 <1>         0.0595 
     35 H6         12.5961    3.5939  -28.7690 H         1 <1>         0.0595 
     36 H7         13.5688    2.7582  -24.1268 H         1 <1>         0.0863 
     37 H8         11.1154    0.6237  -26.9091 H         1 <1>         0.1361 
     38 H9         15.6849    0.5853  -30.2013 H         1 <1>         0.0576 
     39 H10        16.2115    2.1592  -30.8720 H         1 <1>         0.0576 
     40 H11        14.2464    2.3262  -32.2587 H         1 <1>         0.0635 
     41 H12        15.1102    0.0761  -32.9604 H         1 <1>         0.0635 
     42 H13        13.3166    0.1362  -33.0212 H         1 <1>         0.0635 
     43 H14        11.9207   -2.3610  -31.9520 H         1 <1>         0.0509 
     44 H15        11.7893   -4.5160  -33.1890 H         1 <1>         0.0495 
     45 H16        13.8547   -5.5394  -34.1152 H         1 <1>         0.0495 
     46 H17        16.0533   -4.4411  -33.7506 H         1 <1>         0.0509 
     47 C47        18.3310   -1.8386  -30.8194 C.3       1 <1>        -0.0323 
     48 C48        16.1996   -2.8075  -29.8313 C.3       1 <1>        -0.0323 
     49 H18        18.3202   -4.5597  -30.4905 H         1 <1>         0.0261 
     50 H19        18.2853   -4.2455  -32.2495 H         1 <1>         0.0261 
     51 H20        16.8645   -4.9586  -31.4308 H         1 <1>         0.0261 
     52 H21        18.9150   -2.1507  -29.9407 H         1 <1>         0.0261 
     53 H22        17.9631   -0.8156  -30.6507 H         1 <1>         0.0261 
     54 H23        18.9964   -1.8256  -31.6952 H         1 <1>         0.0261 
     55 H24        16.7461   -3.1208  -28.9295 H         1 <1>         0.0261 
     56 H25        15.3579   -3.5006  -29.9774 H         1 <1>         0.0261 
     57 H26        15.7951   -1.8026  -29.6588 H         1 <1>         0.0261 
@<TRIPOS>BOND
     1    2    1 ar   
     2    2    3 ar   
     3    3    4 ar   
     4    4    5 ar   
     5    5    6 ar   
     6    1    6 ar   
     7    6    7 1    
     8    7    8 1    
     9    8    9 1    
    10    9   10 1    
    11   10   11 2    
    12   11   12 1    
    13   12   13 2    
    14    9   13 1    
    15    7   14 1    
    16   14   15 1    
    17   15   16 1    
    18   16   17 1    
    19    7   17 1    
    20   16   18 1    
    21   18   19 1    
    22   19   20 1    
    23   20   21 ar   
    24   21   22 ar   
    25   22   23 ar   
    26   23   24 ar   
    27   24   25 ar   
    28   20   25 ar   
    29   25   26 1    
    30   26   27 1    
    31   27   28 1    
    32    3   29 1    
    33    1   30 1    
    34    2   31 1    
    35    4   32 1    
    36    5   33 1    
    37    8   34 1    
    38    8   35 1    
    39   11   36 1    
    40   13   37 1    
    41   15   38 1    
    42   15   39 1    
    43   16   40 1    
    44   18   41 1    
    45   18   42 1    
    46   21   43 1    
    47   22   44 1    
    48   23   45 1    
    49   24   46 1    
    50   27   47 1    
    51   27   48 1    
    52   28   49 1    
    53   28   50 1    
    54   28   51 1    
    55   47   52 1    
    56   47   53 1    
    57   47   54 1    
    58   48   55 1    
    59   48   56 1    
    60   48   57 1    
@<TRIPOS>SUBSTRUCTURE
     1 ****        2 TEMP              0 ****  ****    0 ROOT 
@<TRIPOS>NORMAL
@<TRIPOS>FF_PBC
FORCE_FIELD_SETUP_FEATURE Force Field Setup information
v1.0  0 0.000000 0.000000 0.000000 0.000000 0.000000 0.000000 NONE 0 0 0 0 1 0 0 0 0 0 0 0 0
@<TRIPOS>RENDERING_ATTRS
ANTIALIASED_LINES 
*
