#	Name:			PISM01094
#	Creating user name:	Qinrunwen
#	Creation time:		Mon Apr 01 13:43:10 2019

#	Modifying user name:	Qinrunwen
#	Modification time:	Mon Apr 01 13:45:42 2019

@<TRIPOS>MOLECULE
PISM01094
   47    50     1     1     0
SMALL
GAST_HUCK


@<TRIPOS>ATOM
      1 C1         11.2610   25.8375    3.2869 C.ar      1 <1>        -0.0679 
      2 C2         10.2392   25.8816    2.3292 C.ar      1 <1>        -0.0468 
      3 C3         10.5000   26.5169    1.1132 C.ar      1 <1>         0.0423 
      4 C4         11.7350   27.0992    0.8679 C.ar      1 <1>        -0.0009 
      5 C5         12.7682   27.0420    1.8060 C.ar      1 <1>        -0.0620 
      6 C6         12.5164   26.4039    3.0268 C.ar      1 <1>        -0.0689 
      7 C7         11.7121   27.7326   -0.4976 C.2       1 <1>         0.0654 
      8 S8          9.3144   26.6338   -0.1913 S.3       1 <1>        -0.0221 
      9 C9         10.5487   27.5493   -1.1308 C.2       1 <1>         0.1195 
     10 Cl10       13.0642   28.6045   -1.1869 Cl        1 <1>        -0.0773 
     11 C11        10.2964   28.0314   -2.4991 C.2       1 <1>         0.2194 
     12 O12        10.3251   27.1601   -3.3532 O.2       1 <1>        -0.3855 
     13 N13        10.0663   29.3357   -2.8140 N.am      1 <1>        -0.2597 
     14 C14         9.9618   29.7073   -4.2213 C.3       1 <1>         0.0421 
     15 C15        11.0554   30.7760   -4.4344 C.3       1 <1>        -0.0084 
     16 C16        10.7539   31.9727   -3.5328 C.ar      1 <1>        -0.0562 
     17 C17        10.1552   31.7669   -2.2833 C.ar      1 <1>        -0.0354 
     18 C18         9.8656   30.3406   -1.7657 C.3       1 <1>         0.0655 
     19 C19         8.3901   30.2015   -1.3023 C.3       1 <1>        -0.0345 
     20 C20         9.8235   32.8897   -1.5110 C.ar      1 <1>        -0.0438 
     21 C21        10.0087   34.1804   -2.0099 C.ar      1 <1>         0.1061 
     22 C22        10.7035   34.3776   -3.2086 C.ar      1 <1>         0.1060 
     23 C23        11.0700   33.2650   -3.9691 C.ar      1 <1>        -0.0458 
     24 O24        11.0079   35.6770   -3.6339 O.3       1 <1>        -0.3310 
     25 C25        12.3875   35.9903   -3.8919 C.3       1 <1>         0.0553 
     26 O26         9.4866   35.2682   -1.3013 O.3       1 <1>        -0.3310 
     27 C27         8.3264   35.8451   -1.9243 C.3       1 <1>         0.0553 
     28 H1         11.0754   25.3605    4.2456 H         1 <1>         0.0589 
     29 H2          9.2683   25.4335    2.5245 H         1 <1>         0.0576 
     30 H3         13.7390   27.4760    1.5959 H         1 <1>         0.0593 
     31 H4         13.2978   26.3446    3.7809 H         1 <1>         0.0564 
     32 H5          8.9615   30.1261   -4.4258 H         1 <1>         0.0542 
     33 H6         10.1347   28.8828   -4.9330 H         1 <1>         0.0542 
     34 H7         11.0781   31.0706   -5.4962 H         1 <1>         0.0409 
     35 H8         12.0406   30.3671   -4.1564 H         1 <1>         0.0409 
     36 H9         10.5337   30.1743   -0.9065 H         1 <1>         0.0680 
     37 H10         7.7144   30.5607   -2.0919 H         1 <1>         0.0270 
     38 H11         8.1862   30.7628   -0.3785 H         1 <1>         0.0270 
     39 H12         8.1579   29.1461   -1.1055 H         1 <1>         0.0270 
     40 H13         9.4118   32.7823   -0.5142 H         1 <1>         0.0435 
     41 H14        11.5960   33.3951   -4.9075 H         1 <1>         0.0434 
     42 H15        13.0198   35.7295   -3.0277 H         1 <1>         0.0570 
     43 H16        12.4658   37.0750   -4.0721 H         1 <1>         0.0570 
     44 H17        12.7453   35.4638   -4.7877 H         1 <1>         0.0570 
     45 H18         8.5699   36.2431   -2.9213 H         1 <1>         0.0570 
     46 H19         7.9609   36.6717   -1.2988 H         1 <1>         0.0570 
     47 H20         7.5218   35.0987   -2.0202 H         1 <1>         0.0570 
@<TRIPOS>BOND
     1    2    1 ar   
     2    2    3 ar   
     3    3    4 ar   
     4    4    5 ar   
     5    6    5 ar   
     6    1    6 ar   
     7    4    7 1    
     8    3    8 1    
     9    8    9 1    
    10    7    9 2    
    11    7   10 1    
    12    9   11 1    
    13   11   12 2    
    14   11   13 am   
    15   13   14 1    
    16   14   15 1    
    17   15   16 1    
    18   16   17 ar   
    19   17   18 1    
    20   13   18 1    
    21   18   19 1    
    22   17   20 ar   
    23   20   21 ar   
    24   21   22 ar   
    25   22   23 ar   
    26   16   23 ar   
    27   22   24 1    
    28   24   25 1    
    29   21   26 1    
    30   26   27 1    
    31    1   28 1    
    32    2   29 1    
    33    5   30 1    
    34    6   31 1    
    35   14   32 1    
    36   14   33 1    
    37   15   34 1    
    38   15   35 1    
    39   18   36 1    
    40   19   37 1    
    41   19   38 1    
    42   19   39 1    
    43   20   40 1    
    44   23   41 1    
    45   25   42 1    
    46   25   43 1    
    47   25   44 1    
    48   27   45 1    
    49   27   46 1    
    50   27   47 1    
@<TRIPOS>SUBSTRUCTURE
     1 ****        2 TEMP              0 ****  ****    0 ROOT 
@<TRIPOS>NORMAL
@<TRIPOS>FF_PBC
FORCE_FIELD_SETUP_FEATURE Force Field Setup information
v1.0  0 0.000000 0.000000 0.000000 0.000000 0.000000 0.000000 NONE 0 0 0 0 1 0 0 0 0 0 0 0 0
