#	Name:			PISM00869.1
#	Creating user name:	baoopengkun
#	Creation time:		Thu Dec 13 23:15:37 2018

#	Modifying user name:	baoopengkun
#	Modification time:	Thu Dec 13 23:50:11 2018

@<TRIPOS>MOLECULE
PISM00869.1
   24    25     1     1     0
SMALL
GAST_HUCK


@<TRIPOS>ATOM
      1 H2          1.2454    0.4209    1.6684 H         1 <1>         0.0538 
      2 C2          2.6684   -1.1080    2.2127 C.ar      1 <1>        -0.0651 
      3 C3          3.9619   -1.6034    2.0235 C.ar      1 <1>        -0.0006 
      4 C4          4.8320   -0.9607    1.1380 C.ar      1 <1>        -0.0273 
      5 C5          4.4061    0.1690    0.4352 C.ar      1 <1>         0.1626 
      6 C6          3.1122    0.6650    0.6239 C.ar      1 <1>         0.1346 
      7 C7          2.2458    0.0286    1.5169 C.ar      1 <1>        -0.0313 
      8 F8          5.2345    0.7670   -0.4189 F         1 <1>        -0.1894 
      9 O9          2.6846    1.7935   -0.0753 O.3       1 <1>        -0.2686 
     10 C10         1.9663    1.5064   -1.2840 C.3       1 <1>         0.2356 
     11 O11         1.6253    2.7648   -1.8982 O.3       1 <1>        -0.2314 
     12 C12         2.2875    2.7858   -3.0483 C.2       1 <1>         0.2494 
     13 C13         3.0690    1.5906   -3.3443 C.2       1 <1>         0.0292 
     14 C14         2.8598    0.8115   -2.2854 C.2       1 <1>        -0.0020 
     15 C15         3.9022    1.2984   -4.5621 C.3       1 <1>        -0.0323 
     16 O16         2.2335    3.7390   -3.8061 O.2       1 <1>        -0.3691 
     17 H1          1.9922   -1.6055    2.9009 H         1 <1>         0.0582 
     18 Br18        4.5226   -3.1097    2.9445 Br        1 <1>        -0.0610 
     19 H3          5.8392   -1.3354    0.9916 H         1 <1>         0.0600 
     20 H4          1.0455    0.9318   -1.0898 H         1 <1>         0.1198 
     21 H5          3.2815   -0.1850   -2.1612 H         1 <1>         0.0705 
     22 H6          3.6653    0.2961   -4.9491 H         1 <1>         0.0347 
     23 H7          4.9684    1.3394   -4.2941 H         1 <1>         0.0347 
     24 H8          3.7020    2.0412   -5.3489 H         1 <1>         0.0347 
@<TRIPOS>BOND
     1    7    1 1    
     2    3    2 ar   
     3    4    3 ar   
     4    5    4 ar   
     5    6    5 ar   
     6    6    7 ar   
     7    2    7 ar   
     8    5    8 1    
     9    6    9 1    
    10    9   10 1    
    11   10   11 1    
    12   11   12 1    
    13   12   13 1    
    14   13   14 2    
    15   10   14 1    
    16   13   15 1    
    17   12   16 2    
    18    2   17 1    
    19    3   18 1    
    20    4   19 1    
    21   10   20 1    
    22   14   21 1    
    23   15   22 1    
    24   15   23 1    
    25   15   24 1    
@<TRIPOS>SUBSTRUCTURE
     1 ****        2 TEMP              0 ****  ****    0 ROOT 
@<TRIPOS>NORMAL
@<TRIPOS>FF_PBC
FORCE_FIELD_SETUP_FEATURE Force Field Setup information
v1.0  0 0.000000 0.000000 0.000000 0.000000 0.000000 0.000000 NONE 0 0 0 0 1 0 0 0 0 0 0 0 0
