#	Name:			PISM01182.3
#	Creating user name:	malab
#	Creation time:		Thu Apr 11 00:22:40 2019

#	Modifying user name:	malab
#	Modification time:	Thu Apr 11 00:31:03 2019

@<TRIPOS>MOLECULE
PISM01182.3
  129   132     1     2     0
SMALL
GAST_HUCK


@<TRIPOS>ATOM
      1 C1         33.3289   15.6843  -19.6958 C.3       1 <1>        -0.0507 
      2 C2         33.5821   14.5278  -18.6902 C.3       1 <1>        -0.0467 
      3 H1         33.8334   16.6014  -19.3543 H         1 <1>         0.0000 
      4 C4         35.0700   14.0713  -18.6195 C.3       1 <1>        -0.0627 
      5 C5         36.0149   15.2014  -18.1233 C.3       1 <1>         0.0000 
      6 H2         33.7313   15.4093  -20.6844 H         1 <1>         0.0000 
      7 C7         31.8107   15.9847  -19.8269 C.3       1 <1>        -0.0528 
      8 C8         31.5520   17.1561  -20.8132 C.3       1 <1>        -0.0530 
      9 C9         30.0350   17.4713  -20.9306 C.3       1 <1>        -0.0531 
     10 C10        29.7768   18.6563  -21.9008 C.3       1 <1>        -0.0531 
     11 C11        28.2601   18.9647  -22.0371 C.3       1 <1>        -0.0531 
     12 C12        28.0108   20.1640  -22.9927 C.3       1 <1>        -0.0531 
     13 C13        26.4956   20.4689  -23.1571 C.3       1 <1>        -0.0529 
     14 C14        26.2692   21.6924  -24.0876 C.3       1 <1>        -0.0505 
     15 C15        24.7607   21.9952  -24.3085 C.3       1 <1>        -0.0396 
     16 C16        24.5818   23.2511  -25.2031 C.3       1 <1>        -0.0148 
     17 C17        23.1276   23.4945  -25.5307 C.2       1 <1>        -0.0596 
     18 C18        22.4560   24.5995  -25.1760 C.2       1 <1>        -0.0030 
     19 C19        21.0406   24.8335  -25.5403 C.2       1 <1>         0.1764 
     20 O20        20.4656   23.9711  -26.1840 O.2       1 <1>        -0.4012 
     21 N21        20.4194   25.9758  -25.1620 N.am      1 <1>        -0.2811 
     22 C22        19.0315   26.2302  -25.5494 C.3       1 <1>         0.1197 
     23 C23        18.8440   26.4240  -27.0695 C.3       1 <1>         0.1108 
     24 O24        17.4297   26.5364  -27.3137 O.3       1 <1>        -0.3867 
     25 C25        18.4311   27.4823  -24.8576 C.3       1 <1>         0.1876 
     26 O26        18.8012   27.3953  -23.4643 O.3       1 <1>        -0.3180 
     27 C27        17.9739   28.1683  -22.5697 C.3       1 <1>         0.1879 
     28 C28        16.5529   27.5781  -22.2984 C.3       1 <1>         0.1211 
     29 N29        15.4247   28.4966  -22.4999 N.am      1 <1>        -0.2766 
     30 C30        15.3240   29.7452  -21.9670 C.2       1 <1>         0.1733 
     31 O31        14.3216   30.4071  -22.1933 O.2       1 <1>        -0.3974 
     32 C32        16.3679   30.4338  -21.1144 C.3       1 <1>         0.0257 
     33 C33        16.4323   26.8637  -20.9261 C.3       1 <1>         0.1111 
     34 O34        15.2968   25.9795  -20.9471 O.3       1 <1>        -0.3867 
     35 C35        17.7388   26.0753  -20.6823 C.3       1 <1>         0.1116 
     36 O36        17.5865   25.3162  -19.4693 O.3       1 <1>        -0.3865 
     37 C37        18.9118   27.0932  -20.5950 C.3       1 <1>         0.1130 
     38 O38        18.6781   28.3195  -21.3236 O.3       1 <1>        -0.3407 
     39 C39        20.2917   26.4524  -20.9035 C.3       1 <1>         0.0730 
     40 O40        20.3088   25.7945  -22.1805 O.3       1 <1>        -0.3924 
     41 C41        19.5866   27.6953  -27.5645 C.3       1 <1>         0.1095 
     42 O42        18.7730   28.1765  -28.6549 O.3       1 <1>        -0.3866 
     43 C43        20.0016   30.1717  -27.0208 C.3       1 <1>         0.0047 
     44 C44        19.8333   28.7428  -26.4247 C.3       1 <1>         0.0925 
     45 O45        18.7391   28.7546  -25.4810 O.3       1 <1>        -0.3429 
     46 C46        20.7106   31.2371  -26.1353 C.3       1 <1>         0.0864 
     47 C47        20.1780   31.3432  -24.6833 C.3       1 <1>         0.1161 
     48 O48        20.7493   30.3119  -23.8722 O.3       1 <1>        -0.3389 
     49 C49        20.6347   30.6968  -22.4946 C.3       1 <1>         0.1969 
     50 N50        21.5723   30.0001  -21.6052 N.pl3     1 <1>        -0.1665 
     51 C51        22.5495   29.2860  -22.1157 C.2       1 <1>         0.0550 
     52 C52        23.4350   28.6396  -21.3501 C.2       1 <1>         0.0141 
     53 C53        23.2902   28.7515  -19.8964 C.2       1 <1>         0.1916 
     54 O54        24.0830   28.1817  -19.1617 O.2       1 <1>        -0.4051 
     55 N55        22.2632   29.4960  -19.4488 N.am      1 <1>        -0.1858 
     56 C56        21.4138   30.1120  -20.3050 C.2       1 <1>         0.3248 
     57 O57        20.4975   30.7765  -19.8477 O.2       1 <1>        -0.3766 
     58 O58        20.5503   32.5326  -26.7454 O.3       1 <1>        -0.3891 
     59 C59        20.6773   32.6348  -23.9848 C.3       1 <1>         0.1145 
     60 C60        20.8705   32.2254  -22.5013 C.3       1 <1>         0.1357 
     61 O61        19.9294   32.8801  -21.6326 O.3       1 <1>        -0.3839 
     62 O62        19.7260   33.7059  -24.1155 O.3       1 <1>        -0.3864 
     63 H3         32.9701   13.6662  -19.0031 H         1 <1>         0.0000 
     64 H4         33.2445   14.8374  -17.6881 H         1 <1>         0.0000 
     65 H5         35.3969   13.7667  -19.6290 H         1 <1>         0.0000 
     66 H6         37.0386   14.8167  -17.9949 H         1 <1>         0.0000 
     67 H7         35.6677   15.5943  -17.1558 H         1 <1>         0.0000 
     68 C68        35.1929   12.8352  -17.6846 C.3       1 <1>         0.0232 
     69 H8         36.0628   16.0290  -18.8457 H         1 <1>         0.0000 
     70 H9         31.4053   16.2472  -18.8356 H         1 <1>         0.0000 
     71 H10        31.2873   15.0844  -20.1894 H         1 <1>         0.0000 
     72 H11        31.9487   16.8886  -21.8072 H         1 <1>         0.0000 
     73 H12        32.0833   18.0553  -20.4587 H         1 <1>         0.0000 
     74 H13        29.6371   17.7251  -19.9343 H         1 <1>         0.0000 
     75 H14        29.5050   16.5765  -21.2961 H         1 <1>         0.0000 
     76 H15        30.1877   18.4075  -22.8926 H         1 <1>         0.0000 
     77 H16        30.2995   19.5507  -21.5245 H         1 <1>         0.0000 
     78 H17        27.8463   19.2001  -21.0428 H         1 <1>         0.0000 
     79 H18        27.7415   18.0730  -22.4260 H         1 <1>         0.0000 
     80 H19        28.4428   19.9362  -23.9810 H         1 <1>         0.0000 
     81 H20        28.5192   21.0560  -22.5917 H         1 <1>         0.0000 
     82 H21        26.0526   20.6797  -22.1702 H         1 <1>         0.0000 
     83 H22        25.9897   19.5871  -23.5829 H         1 <1>         0.0000 
     84 H23        26.7399   21.4945  -25.0655 H         1 <1>         0.0000 
     85 H24        26.7542   22.5778  -23.6433 H         1 <1>         0.0000 
     86 H25        24.2634   22.1690  -23.3400 H         1 <1>         0.0000 
     87 H26        24.2838   21.1265  -24.7918 H         1 <1>         0.0000 
     88 H27        25.1127   23.0998  -26.1561 H         1 <1>         0.0000 
     89 H28        25.0334   24.1218  -24.7014 H         1 <1>         0.0000 
     90 H29        22.6197   22.7135  -26.0962 H         1 <1>         0.0000 
     91 H30        22.9669   25.3708  -24.5988 H         1 <1>         0.0000 
     92 H31        20.8876   26.6408  -24.5819 H         1 <1>         0.0000 
     93 H32        18.4394   25.3572  -25.2231 H         1 <1>         0.0000 
     94 H33        19.1973   25.5394  -27.6262 H         1 <1>         0.0000 
     95 H34        17.2267   26.6728  -28.2334 H         1 <1>         0.0000 
     96 H35        17.3372   27.4255  -24.9752 H         1 <1>         0.0000 
     97 H36        17.8593   29.1615  -23.0243 H         1 <1>         0.0000 
     98 H37        16.4306   26.7450  -23.0108 H         1 <1>         0.0000 
     99 H38        14.6518   28.1570  -23.0439 H         1 <1>         0.0000 
    100 H39        15.8787   31.1689  -20.4571 H         1 <1>         0.0000 
    101 H40        17.0701   30.9854  -21.7558 H         1 <1>         0.0000 
    102 H41        16.9286   29.7601  -20.4601 H         1 <1>         0.0000 
    103 H42        16.2893   27.5866  -20.1087 H         1 <1>         0.0000 
    104 H43        15.1914   25.5030  -20.1295 H         1 <1>         0.0000 
    105 H44        17.8831   25.3843  -21.5306 H         1 <1>         0.0000 
    106 H45        18.3478   24.7817  -19.2713 H         1 <1>         0.0000 
    107 H46        18.9565   27.4547  -19.5546 H         1 <1>         0.0000 
    108 H47        20.5326   25.7163  -20.1183 H         1 <1>         0.0000 
    109 H48        21.0552   27.2440  -20.8804 H         1 <1>         0.0000 
    110 H49        21.1458   25.3786  -22.3635 H         1 <1>         0.0000 
    111 H50        20.5714   27.3929  -27.9685 H         1 <1>         0.0000 
    112 H51        19.1768   28.8417  -29.2002 H         1 <1>         0.0000 
    113 H52        19.0039   30.5512  -27.2952 H         1 <1>         0.0000 
    114 H53        20.6158   30.1088  -27.9339 H         1 <1>         0.0000 
    115 H54        20.7700   28.5101  -25.8970 H         1 <1>         0.0000 
    116 H55        21.7901   31.0059  -26.0691 H         1 <1>         0.0000 
    117 H56        19.0772   31.3038  -24.6471 H         1 <1>         0.0000 
    118 H57        19.5954   30.5099  -22.1932 H         1 <1>         0.0000 
    119 H58        22.6973   29.1788  -23.1913 H         1 <1>         0.0000 
    120 H59        24.2453   28.0447  -21.7766 H         1 <1>         0.0000 
    121 H60        22.1312   29.5940  -18.4599 H         1 <1>         0.0000 
    122 H61        20.9214   32.5821  -27.6206 H         1 <1>         0.0000 
    123 H62        21.6546   32.9489  -24.3951 H         1 <1>         0.0000 
    124 H63        21.9010   32.4378  -22.1653 H         1 <1>         0.0000 
    125 H64        20.0345   33.8257  -21.6413 H         1 <1>         0.0000 
    126 H65        19.5705   33.9398  -25.0253 H         1 <1>         0.0000 
    127 H66        34.5531   12.0142  -18.0437 H         1 <1>         0.0000 
    128 H67        34.8857   13.0964  -16.6602 H         1 <1>         0.0000 
    129 H68        36.2315   12.4707  -17.6567 H         1 <1>         0.0000 
@<TRIPOS>BOND
     1    7    1 1    
     2    1    2 1    
     3    1    3 1    
     4    2    4 1    
     5    4    5 1    
     6    1    6 1    
     7    7    8 1    
     8    8    9 1    
     9    9   10 1    
    10   10   11 1    
    11   11   12 1    
    12   12   13 1    
    13   13   14 1    
    14   14   15 1    
    15   15   16 1    
    16   16   17 1    
    17   17   18 2    
    18   18   19 1    
    19   19   20 2    
    20   19   21 am   
    21   21   22 1    
    22   22   23 1    
    23   23   24 1    
    24   22   25 1    
    25   25   26 1    
    26   26   27 1    
    27   27   28 1    
    28   28   29 1    
    29   29   30 am   
    30   30   31 2    
    31   30   32 1    
    32   28   33 1    
    33   33   34 1    
    34   33   35 1    
    35   35   36 1    
    36   35   37 1    
    37   37   38 1    
    38   27   38 1    
    39   37   39 1    
    40   39   40 1    
    41   23   41 1    
    42   41   42 1    
    43   41   44 1    
    44   44   43 1    
    45   44   45 1    
    46   25   45 1    
    47   43   46 1    
    48   46   47 1    
    49   47   48 1    
    50   48   49 1    
    51   49   50 1    
    52   50   51 1    
    53   51   52 2    
    54   52   53 1    
    55   53   54 2    
    56   53   55 am   
    57   55   56 am   
    58   56   57 2    
    59   50   56 1    
    60   46   58 1    
    61   47   59 1    
    62   59   60 1    
    63   49   60 1    
    64   60   61 1    
    65   59   62 1    
    66    2   63 1    
    67    2   64 1    
    68    4   65 1    
    69    5   66 1    
    70    5   67 1    
    71    4   68 1    
    72    5   69 1    
    73    7   70 1    
    74    7   71 1    
    75    8   72 1    
    76    8   73 1    
    77    9   74 1    
    78    9   75 1    
    79   10   76 1    
    80   10   77 1    
    81   11   78 1    
    82   11   79 1    
    83   12   80 1    
    84   12   81 1    
    85   13   82 1    
    86   13   83 1    
    87   14   84 1    
    88   14   85 1    
    89   15   86 1    
    90   15   87 1    
    91   16   88 1    
    92   16   89 1    
    93   17   90 1    
    94   18   91 1    
    95   21   92 1    
    96   22   93 1    
    97   23   94 1    
    98   24   95 1    
    99   25   96 1    
   100   27   97 1    
   101   28   98 1    
   102   29   99 1    
   103   32  100 1    
   104   32  101 1    
   105   32  102 1    
   106   33  103 1    
   107   34  104 1    
   108   35  105 1    
   109   36  106 1    
   110   37  107 1    
   111   39  108 1    
   112   39  109 1    
   113   40  110 1    
   114   41  111 1    
   115   42  112 1    
   116   43  113 1    
   117   43  114 1    
   118   44  115 1    
   119   46  116 1    
   120   47  117 1    
   121   49  118 1    
   122   51  119 1    
   123   52  120 1    
   124   55  121 1    
   125   58  122 1    
   126   59  123 1    
   127   60  124 1    
   128   61  125 1    
   129   62  126 1    
   130   68  127 1    
   131   68  128 1    
   132   68  129 1    
@<TRIPOS>SUBSTRUCTURE
     1 ****        7 TEMP              0 ****  ****    0 ROOT 
@<TRIPOS>NORMAL
@<TRIPOS>FF_PBC
FORCE_FIELD_SETUP_FEATURE Force Field Setup information
v1.0  0 0.000000 0.000000 0.000000 0.000000 0.000000 0.000000 NONE 0 0 0 0 0 0 0 0 0 0 0 0 0
@<TRIPOS>RENDERING_ATTRS
ANTIALIASED_LINES 
*
