#	Name:			PISM00475
#	Creating user name:	baoopengkun
#	Creation time:		Wed Feb 27 21:55:46 2019

#	Modifying user name:	baoopengkun
#	Modification time:	Wed Feb 27 21:56:45 2019

@<TRIPOS>MOLECULE
PISM00475
   28    30     1     1     0
SMALL
GAST_HUCK


@<TRIPOS>ATOM
      1 C1         15.6863    2.5485  -16.3942 C.ar      1 <1>         0.0042 
      2 C2         16.1388    3.1178  -17.5897 C.ar      1 <1>        -0.0487 
      3 C3         17.4055    3.7050  -17.6521 C.ar      1 <1>        -0.0487 
      4 C4         18.2269    3.7253  -16.5194 C.ar      1 <1>         0.0042 
      5 C5         17.7756    3.1564  -15.3228 C.ar      1 <1>         0.0598 
      6 C6         16.5066    2.5703  -15.2600 C.ar      1 <1>         0.0598 
      7 C7         14.4232    1.9534  -16.3048 C.ar      1 <1>        -0.0380 
      8 C8         14.0080    1.3978  -15.0921 C.ar      1 <1>        -0.0286 
      9 C9         14.8634    1.4477  -13.9880 C.ar      1 <1>         0.0256 
     10 N10        16.0760    2.0262  -14.1014 N.ar      1 <1>        -0.2944 
     11 N11        18.5626    3.1712  -14.2253 N.ar      1 <1>        -0.2944 
     12 C12        19.7926    3.7239  -14.2285 C.ar      1 <1>         0.0256 
     13 C13        20.2881    4.3060  -15.3997 C.ar      1 <1>        -0.0286 
     14 C14        19.4992    4.3057  -16.5529 C.ar      1 <1>        -0.0380 
     15 C15        20.6094    3.6924  -12.9358 C.3       1 <1>        -0.0140 
     16 C16        14.4404    0.8523  -12.6462 C.3       1 <1>        -0.0140 
     17 H1         15.5110    3.1080  -18.4756 H         1 <1>         0.0633 
     18 H2         17.7444    4.1441  -18.5855 H         1 <1>         0.0633 
     19 H3         13.7633    1.9188  -17.1661 H         1 <1>         0.0750 
     20 H4         13.0314    0.9322  -15.0078 H         1 <1>         0.0667 
     21 H5         21.2753    4.7557  -15.4195 H         1 <1>         0.0667 
     22 H6         19.8790    4.7553  -17.4650 H         1 <1>         0.0750 
     23 H7         20.6709    2.6526  -12.5823 H         1 <1>         0.0430 
     24 H8         20.0922    4.2991  -12.1781 H         1 <1>         0.0430 
     25 H9         21.6282    4.0832  -13.0761 H         1 <1>         0.0430 
     26 H10        13.5057    1.3241  -12.3089 H         1 <1>         0.0430 
     27 H11        15.2248    1.0303  -11.8954 H         1 <1>         0.0430 
     28 H12        14.2868   -0.2312  -12.7572 H         1 <1>         0.0430 
@<TRIPOS>BOND
     1    2    1 ar   
     2    2    3 ar   
     3    3    4 ar   
     4    4    5 ar   
     5    5    6 ar   
     6    1    6 ar   
     7    1    7 ar   
     8    7    8 ar   
     9    8    9 ar   
    10    9   10 ar   
    11    6   10 ar   
    12    5   11 ar   
    13   11   12 ar   
    14   12   13 ar   
    15   13   14 ar   
    16    4   14 ar   
    17   12   15 1    
    18    9   16 1    
    19    2   17 1    
    20    3   18 1    
    21    7   19 1    
    22    8   20 1    
    23   13   21 1    
    24   14   22 1    
    25   15   23 1    
    26   15   24 1    
    27   15   25 1    
    28   16   26 1    
    29   16   27 1    
    30   16   28 1    
@<TRIPOS>SUBSTRUCTURE
     1 ****        2 TEMP              0 ****  ****    0 ROOT 
@<TRIPOS>NORMAL
@<TRIPOS>FF_PBC
FORCE_FIELD_SETUP_FEATURE Force Field Setup information
v1.0  0 0.000000 0.000000 0.000000 0.000000 0.000000 0.000000 NONE 0 0 0 0 1 0 0 0 0 0 0 0 0
