#	Name:			PISM00585
#	Creating user name:	baoopengkun
#	Creation time:		Mon Dec 10 11:39:57 2018

#	Modifying user name:	baoopengkun
#	Modification time:	Mon Dec 10 11:40:11 2018

@<TRIPOS>MOLECULE
PISM00585
   39    41     1     2     0
SMALL
GAST_HUCK


@<TRIPOS>ATOM
      1 C1         -3.1473    8.2023   -4.4116 C.ar      1 <1>         0.0705 
      2 C2         -4.4164    8.7842   -4.4810 C.ar      1 <1>        -0.0038 
      3 C3         -5.2894    8.4526   -5.5199 C.ar      1 <1>         0.0716 
      4 C4         -4.8968    7.5224   -6.4850 C.ar      1 <1>        -0.0183 
      5 C5         -3.6257    6.9455   -6.4192 C.ar      1 <1>        -0.0348 
      6 C6         -2.7286    7.3124   -5.4091 C.ar      1 <1>         0.0199 
      7 C7         -1.3078    6.7241   -5.4202 C.3       1 <1>         0.1911 
      8 C8         -1.2968    5.4131   -4.5946 C.3       1 <1>         0.1066 
      9 N9         -0.0368    4.6822   -4.5661 N.pl3     1 <1>        -0.1816 
     10 N10         0.1615    3.4586   -3.9991 N.2       1 <1>        -0.1908 
     11 C11         1.3636    3.0330   -4.1207 C.2       1 <1>         0.0618 
     12 N12         1.9604    4.1203   -4.8455 N.2       1 <1>        -0.2870 
     13 C13         1.1132    5.0200   -5.0665 C.2       1 <1>         0.1270 
     14 O14        -0.3152    7.6546   -4.9714 O.3       1 <1>        -0.3825 
     15 C15        -0.1736    8.6272   -6.0089 C.3       1 <1>         0.0644 
     16 C16        -0.3153    7.7389   -7.2693 C.3       1 <1>         0.0725 
     17 O17        -0.8678    6.5088   -6.7697 O.3       1 <1>        -0.3795 
     18 Cl18       -2.1101    8.6039   -3.0565 Cl        1 <1>        -0.0423 
     19 Cl19       -6.8716    9.1986   -5.6105 Cl        1 <1>        -0.0423 
     20 C20        -1.1967    8.3796   -8.3740 C.3       1 <1>        -0.0257 
     21 C21        -1.3480    7.4279   -9.5911 C.3       1 <1>        -0.0535 
     22 C22        -2.2561    8.0506  -10.6829 C.3       1 <1>        -0.0652 
     23 H1         -4.7266    9.4958   -3.7235 H         1 <1>         0.0708 
     24 H2         -5.5793    7.2501   -7.2839 H         1 <1>         0.0703 
     25 H3         -3.3365    6.2081   -7.1616 H         1 <1>         0.0847 
     26 H4         -2.0535    4.7307   -5.0094 H         1 <1>         0.0592 
     27 H5         -1.5643    5.6478   -3.5539 H         1 <1>         0.0592 
     28 H6          1.8091    2.1030   -3.7710 H         1 <1>         0.0863 
     29 H7          1.3538    5.9342   -5.6046 H         1 <1>         0.1361 
     30 H8          0.7915    9.1526   -5.9402 H         1 <1>         0.0575 
     31 H9         -0.9884    9.3643   -5.9315 H         1 <1>         0.0575 
     32 H10         0.6797    7.4954   -7.6770 H         1 <1>         0.0608 
     33 H11        -0.7287    9.3230   -8.6989 H         1 <1>         0.0290 
     34 H12        -2.1927    8.6137   -7.9689 H         1 <1>         0.0290 
     35 H13        -1.7862    6.4716   -9.2611 H         1 <1>         0.0263 
     36 H14        -0.3546    7.2189  -10.0218 H         1 <1>         0.0263 
     37 H15        -2.3457    7.3628  -11.5386 H         1 <1>         0.0230 
     38 H16        -1.8303    9.0011  -11.0405 H         1 <1>         0.0230 
     39 H17        -3.2634    8.2426  -10.2813 H         1 <1>         0.0230 
@<TRIPOS>BOND
     1    2    1 ar   
     2    2    3 ar   
     3    3    4 ar   
     4    4    5 ar   
     5    5    6 ar   
     6    1    6 ar   
     7    6    7 1    
     8    7    8 1    
     9    8    9 1    
    10    9   10 1    
    11   10   11 2    
    12   11   12 1    
    13   12   13 2    
    14    9   13 1    
    15    7   14 1    
    16   14   15 1    
    17   15   16 1    
    18   16   17 1    
    19    7   17 1    
    20    1   18 1    
    21    3   19 1    
    22   16   20 1    
    23   20   21 1    
    24   21   22 1    
    25    2   23 1    
    26    4   24 1    
    27    5   25 1    
    28    8   26 1    
    29    8   27 1    
    30   11   28 1    
    31   13   29 1    
    32   15   30 1    
    33   15   31 1    
    34   16   32 1    
    35   20   33 1    
    36   20   34 1    
    37   21   35 1    
    38   21   36 1    
    39   22   37 1    
    40   22   38 1    
    41   22   39 1    
@<TRIPOS>SUBSTRUCTURE
     1 ****        2 TEMP              0 ****  ****    0 ROOT 
@<TRIPOS>NORMAL
@<TRIPOS>FF_PBC
FORCE_FIELD_SETUP_FEATURE Force Field Setup information
v1.0  0 0.000000 0.000000 0.000000 0.000000 0.000000 0.000000 NONE 0 0 0 0 1 0 0 0 0 0 0 0 0
@<TRIPOS>RENDERING_ATTRS
ANTIALIASED_LINES 
*
