#	Name:			PISM00622
#	Creating user name:	baoopengkun
#	Creation time:		Mon Dec 10 11:18:19 2018

#	Modifying user name:	baoopengkun
#	Modification time:	Mon Dec 10 11:18:31 2018

@<TRIPOS>MOLECULE
PISM00622
   51    54     1     2     0
SMALL
GAST_HUCK


@<TRIPOS>ATOM
      1 C1         12.1615   -0.7930  -29.8309 C.ar      1 <1>        -0.0348 
      2 C2         12.1937   -1.9737  -29.0837 C.ar      1 <1>        -0.0180 
      3 C3         11.9301   -3.1984  -29.7029 C.ar      1 <1>         0.0714 
      4 C4         11.5945   -3.2368  -31.0589 C.ar      1 <1>        -0.0180 
      5 C5         11.5323   -2.0517  -31.7973 C.ar      1 <1>        -0.0348 
      6 C6         11.8485   -0.8304  -31.1938 C.ar      1 <1>         0.0068 
      7 C7         11.8525    0.4688  -32.0111 C.3       1 <1>         0.1921 
      8 C8         10.4723    1.1512  -31.8897 C.3       1 <1>         0.1073 
      9 N9         10.0675    1.2464  -30.4939 N.pl3     1 <1>        -0.1814 
     10 N10        10.3661    2.2555  -29.6287 N.2       1 <1>        -0.1908 
     11 C11         9.8625    2.0854  -28.4633 C.2       1 <1>         0.0618 
     12 N12         9.1732    0.8379  -28.6467 N.2       1 <1>        -0.2870 
     13 C13         9.3255    0.4207  -29.8202 C.2       1 <1>         0.1270 
     14 O14        12.9205    1.3391  -31.6136 O.3       1 <1>        -0.3814 
     15 C15        14.1192    0.7627  -32.1372 C.3       1 <1>         0.0672 
     16 C16        13.6183    0.2743  -33.5175 C.3       1 <1>         0.1001 
     17 O17        12.1864    0.2355  -33.3881 O.3       1 <1>        -0.3758 
     18 C18        14.2045   -1.0933  -33.9518 C.3       1 <1>         0.0962 
     19 O19        13.9933   -2.0767  -32.9241 O.3       1 <1>        -0.3187 
     20 C20        14.3838   -3.3794  -33.2331 C.ar      1 <1>         0.0953 
     21 C21        13.6466   -4.1264  -34.1564 C.ar      1 <1>        -0.0391 
     22 C22        14.0447   -5.4244  -34.4872 C.ar      1 <1>        -0.0773 
     23 C23        15.1703   -5.9818  -33.8752 C.ar      1 <1>        -0.0792 
     24 C24        15.8931   -5.2436  -32.9335 C.ar      1 <1>        -0.0664 
     25 C25        15.5041   -3.9386  -32.6084 C.ar      1 <1>        -0.0017 
     26 C26        16.2858   -3.1178  -31.5746 C.3       1 <1>         0.0063 
     27 C27        15.4443   -3.0063  -30.3282 C.2       1 <1>        -0.0800 
     28 H18        16.4810   -2.1106  -31.9736 H         1 <1>         0.0577 
     29 Cl29       12.0234   -4.6840  -28.7809 Cl        1 <1>        -0.0420 
     30 H1         12.3780    0.1573  -29.3515 H         1 <1>         0.0849 
     31 H2         12.4277   -1.9417  -28.0248 H         1 <1>         0.0703 
     32 H3         11.3845   -4.1877  -31.5373 H         1 <1>         0.0703 
     33 H4         11.2447   -2.0820  -32.8436 H         1 <1>         0.0849 
     34 H5          9.7353    0.5694  -32.4638 H         1 <1>         0.0595 
     35 H6         10.5391    2.1593  -32.3240 H         1 <1>         0.0595 
     36 H7          9.9375    2.7171  -27.5794 H         1 <1>         0.0863 
     37 H8          8.8909   -0.5042  -30.1972 H         1 <1>         0.1361 
     38 H9         14.4385   -0.0708  -31.4935 H         1 <1>         0.0576 
     39 H10        14.9336    1.5013  -32.1946 H         1 <1>         0.0576 
     40 H11        13.8293    1.0378  -34.2845 H         1 <1>         0.0635 
     41 H12        15.2848   -0.9891  -34.1411 H         1 <1>         0.0637 
     42 H13        13.7048   -1.3884  -34.8879 H         1 <1>         0.0637 
     43 H14        12.7611   -3.6989  -34.6141 H         1 <1>         0.0522 
     44 H15        13.4803   -5.9980  -35.2162 H         1 <1>         0.0534 
     45 H16        15.4829   -6.9898  -34.1310 H         1 <1>         0.0506 
     46 H17        16.7579   -5.6938  -32.4563 H         1 <1>         0.0531 
     47 C47        15.7432   -3.6183  -29.1761 C.2       1 <1>        -0.1156 
     48 H19        17.2605   -3.5828  -31.3609 H         1 <1>         0.0577 
     49 H20        14.5453   -2.3942  -30.3825 H         1 <1>         0.0685 
     50 H21        15.0960   -3.5042  -28.3062 H         1 <1>         0.0297 
     51 H22        16.6300   -4.2429  -29.0733 H         1 <1>         0.0297 
@<TRIPOS>BOND
     1    2    1 ar   
     2    2    3 ar   
     3    3    4 ar   
     4    4    5 ar   
     5    5    6 ar   
     6    1    6 ar   
     7    6    7 1    
     8    7    8 1    
     9    8    9 1    
    10    9   10 1    
    11   10   11 2    
    12   11   12 1    
    13   12   13 2    
    14    9   13 1    
    15    7   14 1    
    16   14   15 1    
    17   15   16 1    
    18   16   17 1    
    19    7   17 1    
    20   16   18 1    
    21   18   19 1    
    22   19   20 1    
    23   20   21 ar   
    24   21   22 ar   
    25   22   23 ar   
    26   23   24 ar   
    27   24   25 ar   
    28   20   25 ar   
    29   25   26 1    
    30   26   27 1    
    31   26   28 1    
    32    3   29 1    
    33    1   30 1    
    34    2   31 1    
    35    4   32 1    
    36    5   33 1    
    37    8   34 1    
    38    8   35 1    
    39   11   36 1    
    40   13   37 1    
    41   15   38 1    
    42   15   39 1    
    43   16   40 1    
    44   18   41 1    
    45   18   42 1    
    46   21   43 1    
    47   22   44 1    
    48   23   45 1    
    49   24   46 1    
    50   27   47 2    
    51   26   48 1    
    52   27   49 1    
    53   47   50 1    
    54   47   51 1    
@<TRIPOS>SUBSTRUCTURE
     1 ****        2 TEMP              0 ****  ****    0 ROOT 
@<TRIPOS>NORMAL
@<TRIPOS>FF_PBC
FORCE_FIELD_SETUP_FEATURE Force Field Setup information
v1.0  0 0.000000 0.000000 0.000000 0.000000 0.000000 0.000000 NONE 0 0 0 0 1 0 0 0 0 0 0 0 0
@<TRIPOS>RENDERING_ATTRS
ANTIALIASED_LINES 
*
