#	Name:			PISM01100
#	Creating user name:	Qinrunwen
#	Creation time:		Mon Apr 01 14:24:43 2019

#	Modifying user name:	Qinrunwen
#	Modification time:	Mon Apr 01 14:28:41 2019

@<TRIPOS>MOLECULE
PISM01100
   56    59     1     1     0
SMALL
GAST_HUCK


@<TRIPOS>ATOM
      1 C1          9.2549   41.2053    2.4607 C.ar      1 <1>        -0.0550 
      2 C2          9.5760   42.3950    3.1217 C.ar      1 <1>        -0.0657 
      3 C3          8.6079   43.0614    3.8755 C.ar      1 <1>        -0.0591 
      4 C4          7.3159   42.5361    3.9659 C.ar      1 <1>         0.0064 
      5 C5          6.9951   41.3552    3.2908 C.ar      1 <1>        -0.0482 
      6 C6          7.9603   40.6798    2.5358 C.ar      1 <1>        -0.0113 
      7 Br7         6.0326   43.4035    4.9833 Br        1 <1>        -0.0517 
      8 C8          7.5794   39.3782    1.8133 C.3       1 <1>         0.0985 
      9 N9          7.0673   38.4337    2.8127 N.am      1 <1>        -0.1661 
     10 C10         5.7362   38.2617    2.9271 C.2       1 <1>         0.2414 
     11 C11         5.2331   37.3202    3.9886 C.ar      1 <1>         0.0857 
     12 C12         6.1927   36.7186    4.8049 C.ar      1 <1>         0.0949 
     13 N13         7.5085   36.9619    4.5813 N.pl3     1 <1>        -0.2275 
     14 C14         7.9223   37.7777    3.6424 C.2       1 <1>         0.1928 
     15 C15         3.8708   37.0647    4.1545 C.ar      1 <1>        -0.0450 
     16 C16         3.4546   36.2341    5.1952 C.ar      1 <1>        -0.0480 
     17 C17         4.3935   35.6796    6.0709 C.ar      1 <1>         0.0450 
     18 C18         5.7615   35.8761    5.8388 C.ar      1 <1>        -0.0120 
     19 S19         9.6207   37.9994    3.4921 S.2       1 <1>        -0.2729 
     20 O20         4.9236   38.8350    2.2202 O.2       1 <1>        -0.3776 
     21 C21         3.8595   34.8702    7.2305 C.2       1 <1>         0.2078 
     22 N22         4.0299   35.2164    8.5368 N.am      1 <1>        -0.2681 
     23 C23         4.7387   36.4486    8.9049 C.3       1 <1>         0.0538 
     24 C24         5.5639   36.2109   10.1903 C.3       1 <1>         0.0562 
     25 N25         4.6042   35.7104   11.1650 N.am      1 <1>        -0.2450 
     26 C26         3.9765   34.4130   10.9346 C.3       1 <1>         0.0562 
     27 C27         3.2811   34.4606    9.5495 C.3       1 <1>         0.0538 
     28 O28         3.2184   33.8819    6.9111 O.2       1 <1>        -0.3828 
     29 C29         4.2916   36.4701   12.2432 C.2       1 <1>         0.3222 
     30 O30         3.3609   35.9524   13.0561 O.3       1 <1>        -0.2641 
     31 C31         3.1829   36.6791   14.2851 C.3       1 <1>         0.0745 
     32 C32         1.9911   36.0505   15.0524 C.3       1 <1>        -0.0372 
     33 O33         4.8095   37.5511   12.4735 O.2       1 <1>        -0.3774 
     34 H1         10.0227   40.6944    1.8893 H         1 <1>         0.0581 
     35 H2         10.5802   42.8039    3.0516 H         1 <1>         0.0606 
     36 H3          8.8553   43.9853    4.3918 H         1 <1>         0.0585 
     37 H4          5.9864   40.9676    3.3609 H         1 <1>         0.0584 
     38 H5          8.4281   38.9400    1.2647 H         1 <1>         0.0765 
     39 H6          6.8310   39.6256    1.0432 H         1 <1>         0.0765 
     40 H7          8.2142   36.4941    5.1733 H         1 <1>         0.2224 
     41 H8          3.1420   37.5085    3.4872 H         1 <1>         0.0649 
     42 H9          2.3956   36.0236    5.3293 H         1 <1>         0.0583 
     43 H10         6.4820   35.3666    6.4713 H         1 <1>         0.0599 
     44 H11         3.9939   37.2341    9.1108 H         1 <1>         0.0542 
     45 H12         5.4291   36.8323    8.1457 H         1 <1>         0.0542 
     46 H13         6.0955   37.1274   10.5013 H         1 <1>         0.0542 
     47 H14         6.3241   35.4373   10.0006 H         1 <1>         0.0542 
     48 H15         3.2587   34.0849   11.7039 H         1 <1>         0.0542 
     49 H16         4.7789   33.6592   10.9043 H         1 <1>         0.0542 
     50 H17         2.3169   34.9803    9.6686 H         1 <1>         0.0542 
     51 H18         3.0756   33.4195    9.2419 H         1 <1>         0.0542 
     52 H19         2.9592   37.7412   14.0852 H         1 <1>         0.0608 
     53 H20         4.1051   36.5998   14.8894 H         1 <1>         0.0608 
     54 H21         1.1097   36.0479   14.3899 H         1 <1>         0.0255 
     55 H22         1.7562   36.6387   15.9568 H         1 <1>         0.0255 
     56 H23         2.2165   35.0116   15.3540 H         1 <1>         0.0255 
@<TRIPOS>BOND
     1    2    1 ar   
     2    2    3 ar   
     3    3    4 ar   
     4    4    5 ar   
     5    5    6 ar   
     6    1    6 ar   
     7    4    7 1    
     8    6    8 1    
     9    8    9 1    
    10    9   10 am   
    11   10   11 1    
    12   11   12 ar   
    13   12   13 1    
    14   13   14 1    
    15    9   14 am   
    16   11   15 ar   
    17   15   16 ar   
    18   16   17 ar   
    19   17   18 ar   
    20   12   18 ar   
    21   14   19 2    
    22   10   20 2    
    23   17   21 1    
    24   21   22 am   
    25   22   23 1    
    26   23   24 1    
    27   24   25 1    
    28   25   26 1    
    29   26   27 1    
    30   22   27 1    
    31   21   28 2    
    32   25   29 am   
    33   29   30 1    
    34   30   31 1    
    35   31   32 1    
    36   29   33 2    
    37    1   34 1    
    38    2   35 1    
    39    3   36 1    
    40    5   37 1    
    41    8   38 1    
    42    8   39 1    
    43   13   40 1    
    44   15   41 1    
    45   16   42 1    
    46   18   43 1    
    47   23   44 1    
    48   23   45 1    
    49   24   46 1    
    50   24   47 1    
    51   26   48 1    
    52   26   49 1    
    53   27   50 1    
    54   27   51 1    
    55   31   52 1    
    56   31   53 1    
    57   32   54 1    
    58   32   55 1    
    59   32   56 1    
@<TRIPOS>SUBSTRUCTURE
     1 ****        2 TEMP              0 ****  ****    0 ROOT 
@<TRIPOS>NORMAL
@<TRIPOS>FF_PBC
FORCE_FIELD_SETUP_FEATURE Force Field Setup information
v1.0  0 0.000000 0.000000 0.000000 0.000000 0.000000 0.000000 NONE 0 0 0 0 1 0 0 0 0 0 0 0 0
