#	Name:			PISM00291
#	Creating user name:	baoopengkun
#	Creation time:		Sun Dec 16 03:19:57 2018

#	Modifying user name:	baoopengkun
#	Modification time:	Sun Dec 16 03:28:49 2018

@<TRIPOS>MOLECULE
PISM00291
   50    52     1     1     0
SMALL
GAST_HUCK


@<TRIPOS>ATOM
      1 C1        -18.9184   17.0522   44.6404 C.ar      1 <1>         0.1251 
      2 C2        -18.2367   16.2446   43.7251 C.ar      1 <1>         0.0144 
      3 C3        -17.0784   15.5785   44.1396 C.ar      1 <1>         0.1251 
      4 C4        -16.6537   15.6588   45.4685 C.ar      1 <1>        -0.0357 
      5 C5        -17.3897   16.3934   46.4039 C.ar      1 <1>        -0.0302 
      6 C6        -18.5078   17.1159   45.9735 C.ar      1 <1>        -0.0357 
      7 C7        -16.9763   16.3930   47.8797 C.3       1 <1>         0.1183 
      8 S8        -17.4094   14.8223   48.6539 S.o2      1 <1>         0.0667 
      9 O9        -17.2408   14.9837   50.0841 O.2       1 <1>        -0.1483 
     10 O10       -16.6891   13.7550   47.9936 O.2       1 <1>        -0.1483 
     11 N11       -19.0686   14.7101   48.3399 N.am      1 <1>        -0.1984 
     12 C12       -19.6831   14.5710   47.0625 C.ar      1 <1>         0.0440 
     13 C13       -19.0693   13.8660   46.0222 C.ar      1 <1>        -0.0617 
     14 C14       -19.6797   13.7731   44.7678 C.ar      1 <1>        -0.0607 
     15 C15       -20.9911   14.2264   44.5743 C.ar      1 <1>         0.0505 
     16 C16       -21.5594   15.0130   45.5832 C.ar      1 <1>        -0.0322 
     17 C17       -20.9320   15.1536   46.8255 C.ar      1 <1>        -0.0529 
     18 C18       -22.8781   15.7246   45.2873 C.3       1 <1>        -0.0077 
     19 C19       -22.8837   16.0564   43.7789 C.3       1 <1>         0.0497 
     20 C20       -22.6245   14.7798   43.0255 C.2       1 <1>         0.1999 
     21 O21       -23.2924   14.5767   42.0242 O.2       1 <1>        -0.3812 
     22 N22       -21.7168   13.9369   43.4567 N.pl3     1 <1>        -0.2378 
     23 C23       -21.5586   12.6620   42.7374 C.3       1 <1>         0.0446 
     24 C24       -22.7610   11.7386   43.0759 C.3       1 <1>        -0.0331 
     25 C25       -22.6566   10.3687   42.3548 C.3       1 <1>        -0.0632 
     26 F26       -16.3722   14.8587   43.2718 F         1 <1>        -0.1919 
     27 H27       -15.7511   15.1378   45.7691 H         1 <1>         0.0492 
     28 C28       -18.7670   16.0964   42.2945 C.3       1 <1>        -0.0328 
     29 F29       -19.9662   17.7692   44.2476 F         1 <1>        -0.1919 
     30 H1        -19.0729   17.7288   46.6672 H         1 <1>         0.0492 
     31 H2        -17.4850   17.1949   48.4349 H         1 <1>         0.0673 
     32 H3        -15.8904   16.5428   47.9715 H         1 <1>         0.0673 
     33 H4        -19.6650   14.8218   49.1352 H         1 <1>         0.2114 
     34 H5        -18.1161   13.3776   46.1665 H         1 <1>         0.0398 
     35 H6        -19.1021   13.3548   43.9520 H         1 <1>         0.0470 
     36 H7        -21.4158   15.7238   47.6110 H         1 <1>         0.0392 
     37 H8        -22.9759   16.6511   45.8759 H         1 <1>         0.0425 
     38 H9        -23.7087   15.0465   45.5406 H         1 <1>         0.0425 
     39 H10       -22.0975   16.7807   43.5252 H         1 <1>         0.0529 
     40 H11       -23.8577   16.4848   43.4927 H         1 <1>         0.0529 
     41 H12       -20.6589   12.0919   43.0030 H         1 <1>         0.0550 
     42 H13       -21.5124   12.8445   41.6508 H         1 <1>         0.0550 
     43 H14       -23.7079   12.2190   42.7817 H         1 <1>         0.0284 
     44 H15       -22.7870   11.5783   44.1667 H         1 <1>         0.0284 
     45 H16       -22.6377   10.5121   41.2631 H         1 <1>         0.0230 
     46 H17       -23.5241    9.7398   42.6107 H         1 <1>         0.0230 
     47 H18       -21.7404    9.8387   42.6584 H         1 <1>         0.0230 
     48 H19       -18.4781   16.9833   41.7116 H         1 <1>         0.0362 
     49 H20       -19.8641   16.0137   42.3051 H         1 <1>         0.0362 
     50 H21       -18.3615   15.1978   41.8061 H         1 <1>         0.0362 
@<TRIPOS>BOND
     1    2    1 ar   
     2    2    3 ar   
     3    3    4 ar   
     4    4    5 ar   
     5    5    6 ar   
     6    1    6 ar   
     7    5    7 1    
     8    7    8 1    
     9    8    9 2    
    10    8   10 2    
    11    8   11 1    
    12   11   12 1    
    13   12   13 ar   
    14   13   14 ar   
    15   14   15 ar   
    16   15   16 ar   
    17   16   17 ar   
    18   12   17 ar   
    19   16   18 1    
    20   18   19 1    
    21   19   20 1    
    22   20   21 2    
    23   20   22 1    
    24   15   22 1    
    25   22   23 1    
    26   23   24 1    
    27   24   25 1    
    28    3   26 1    
    29    4   27 1    
    30    2   28 1    
    31    1   29 1    
    32    6   30 1    
    33    7   31 1    
    34    7   32 1    
    35   11   33 1    
    36   13   34 1    
    37   14   35 1    
    38   17   36 1    
    39   18   37 1    
    40   18   38 1    
    41   19   39 1    
    42   19   40 1    
    43   23   41 1    
    44   23   42 1    
    45   24   43 1    
    46   24   44 1    
    47   25   45 1    
    48   25   46 1    
    49   25   47 1    
    50   28   48 1    
    51   28   49 1    
    52   28   50 1    
@<TRIPOS>SUBSTRUCTURE
     1 ****        2 TEMP              0 ****  ****    0 ROOT 
@<TRIPOS>NORMAL
@<TRIPOS>FF_PBC
FORCE_FIELD_SETUP_FEATURE Force Field Setup information
v1.0  0 0.000000 0.000000 0.000000 0.000000 0.000000 0.000000 NONE 0 0 0 0 1 0 0 0 0 0 0 0 0
