#	Name:			PISM00037
#	Creating user name:	baoopengkun
#	Creation time:		Sat Nov 17 17:54:16 2018

#	Modifying user name:	baoopengkun
#	Modification time:	Sat Nov 17 18:06:33 2018

@<TRIPOS>MOLECULE
PISM00037
   23    24     1     2     0
SMALL
GAST_HUCK


@<TRIPOS>ATOM
      1 O1         -3.9586   -7.5571   10.2207 O.2       1 <1>        -0.3494 
      2 C2         -2.8869   -7.2379    9.7355 C.2       1 <1>         0.2566 
      3 C3         -1.5876   -7.4922   10.3722 C.2       1 <1>         0.0410 
      4 C4         -0.6667   -6.9789    9.5513 C.2       1 <1>         0.0410 
      5 C5         -1.4066   -6.4171    8.4135 C.2       1 <1>         0.2566 
      6 N6         -2.6734   -6.6209    8.6127 N.pl3     1 <1>        -0.1405 
      7 C7         -3.6496   -6.2334    7.7578 C.ar      1 <1>         0.1077 
      8 C8         -4.6162   -7.1487    7.3284 C.ar      1 <1>         0.1416 
      9 C9         -5.6469   -6.7289    6.4852 C.ar      1 <1>        -0.0492 
     10 C10        -5.6906   -5.4071    6.0329 C.ar      1 <1>        -0.0517 
     11 C11        -4.7061   -4.4894    6.4228 C.ar      1 <1>         0.1019 
     12 C12        -3.6959   -4.9135    7.2955 C.ar      1 <1>        -0.0154 
     13 O13        -0.8842   -5.8651    7.4602 O.2       1 <1>        -0.3494 
     14 F14        -4.5562   -8.4237    7.7063 F         1 <1>        -0.2018 
     15 N15        -4.7273   -3.2102    5.9671 N.pl3     1 <1>         0.0268 
     16 O16        -5.6062   -2.8290    5.2242 O.2       1 <1>        -0.1275 
     17 O17        -3.7340   -2.2948    6.3477 O.3       1 <1>        -0.2404 
     18 H3         -6.4111   -7.4369    6.1814 H         1 <1>         0.0541 
     19 H1         -1.4265   -7.9976   11.3231 H         1 <1>         0.0816 
     20 H2          0.4143   -6.9709    9.6824 H         1 <1>         0.0816 
     21 H4         -6.4984   -5.1044    5.3743 H         1 <1>         0.0410 
     22 H5         -2.9367   -4.2149    7.6289 H         1 <1>         0.0417 
     23 H9         -3.2360   -2.0163    5.5870 H         1 <1>         0.2521 
@<TRIPOS>BOND
     1    2    1 2    
     2    2    3 1    
     3    3    4 2    
     4    4    5 1    
     5    5    6 1    
     6    2    6 1    
     7    6    7 1    
     8    7    8 ar   
     9    8    9 ar   
    10    9   10 ar   
    11   10   11 ar   
    12   11   12 ar   
    13    7   12 ar   
    14    5   13 2    
    15    8   14 1    
    16   11   15 1    
    17   15   16 2    
    18   15   17 1    
    19    9   18 1    
    20    3   19 1    
    21    4   20 1    
    22   10   21 1    
    23   12   22 1    
    24   17   23 1    
@<TRIPOS>SUBSTRUCTURE
     1 ****        2 TEMP              0 ****  ****    0 ROOT 
@<TRIPOS>NORMAL
@<TRIPOS>FF_PBC
FORCE_FIELD_SETUP_FEATURE Force Field Setup information
v1.0  0 0.000000 0.000000 0.000000 0.000000 0.000000 0.000000 NONE 0 0 0 0 1 0 0 0 0 0 0 0 0
@<TRIPOS>RENDERING_ATTRS
ANTIALIASED_LINES 
*
