#	Name:			PISM00583
#	Creating user name:	baoopengkun
#	Creation time:		Mon Dec 10 12:12:16 2018

#	Modifying user name:	baoopengkun
#	Modification time:	Mon Dec 10 12:12:40 2018

@<TRIPOS>MOLECULE
PISM00583
   39    41     1     2     0
SMALL
GAST_HUCK


@<TRIPOS>ATOM
      1 Cl1        -5.0192   20.5981  -14.3014 Cl        1 PHENYL     -0.0423 
      2 C          -3.6104   19.5592  -14.3921 C.ar      1 PHENYL      0.0705 
      3 C          -3.6358   18.3431  -15.0879 C.ar      1 PHENYL      0.0199 
      4 C          -2.4826   17.5506  -15.1262 C.ar      1 PHENYL     -0.0348 
      5 C          -1.3152   17.9607  -14.4766 C.ar      1 PHENYL     -0.0183 
      6 C          -1.2929   19.1750  -13.7872 C.ar      1 PHENYL      0.0716 
      7 C          -2.4397   19.9711  -13.7489 C.ar      1 PHENYL     -0.0038 
      8 C8         -4.8915   17.8464  -15.8221 C.3       1 PHENYL      0.1911 
      9 O9         -6.1285   18.1952  -15.1902 O.3       1 PHENYL     -0.3825 
     10 C10        -6.2447   17.3776  -14.0198 C.3       1 PHENYL      0.0644 
     11 C11        -5.4436   16.1092  -14.4140 C.3       1 PHENYL      0.0725 
     12 O12        -5.0154   16.4215  -15.7456 O.3       1 PHENYL     -0.3795 
     13 C13        -4.8486   18.3083  -17.2933 C.3       1 PHENYL      0.1066 
     14 N14        -4.7136   19.7546  -17.3493 N.pl3     1 PHENYL     -0.1816 
     15 C15        -5.6607   20.6398  -17.3041 C.2       1 PHENYL      0.1270 
     16 N16        -5.1746   21.7929  -17.3987 N.2       1 PHENYL     -0.2870 
     17 C17        -3.7447   21.7269  -17.5279 C.2       1 PHENYL      0.0618 
     18 N18        -3.5568   20.4600  -17.4927 N.2       1 PHENYL     -0.1908 
     19 C19        -6.2883   14.8103  -14.4176 C.3       1 PHENYL     -0.0257 
     20 C20        -5.4446   13.5927  -14.8824 C.3       1 PHENYL     -0.0535 
     21 C21        -6.2888   12.2919  -14.8859 C.3       1 PHENYL     -0.0652 
     22 Cl22        0.1679   19.6975  -12.9736 Cl        1 PHENYL     -0.0423 
     23 H1         -2.4891   16.6083  -15.6658 H         1 PHENYL      0.0847 
     24 H2         -0.4260   17.3390  -14.5068 H         1 PHENYL      0.0703 
     25 H3         -2.4209   20.9158  -13.2162 H         1 PHENYL      0.0708 
     26 H4         -7.3073   17.1916  -13.8028 H         1 PHENYL      0.0575 
     27 H5         -5.7847   17.8897  -13.1591 H         1 PHENYL      0.0575 
     28 H6         -4.5611   15.9940  -13.7614 H         1 PHENYL      0.0608 
     29 H7         -5.7665   17.9780  -17.8025 H         1 PHENYL      0.0592 
     30 H8         -3.9838   17.8476  -17.7934 H         1 PHENYL      0.0592 
     31 H9         -6.7232   20.4239  -17.1958 H         1 PHENYL      0.1361 
     32 H10        -3.0191   22.5325  -17.6292 H         1 PHENYL      0.0863 
     33 H11        -7.1435   14.9464  -15.0992 H         1 PHENYL      0.0290 
     34 H12        -6.6739   14.6296  -13.4011 H         1 PHENYL      0.0290 
     35 H13        -4.5817   13.4614  -14.2086 H         1 PHENYL      0.0263 
     36 H14        -5.0618   13.7785  -15.9000 H         1 PHENYL      0.0263 
     37 H15        -5.6740   11.4417  -15.2215 H         1 PHENYL      0.0230 
     38 H16        -7.1478   12.3933  -15.5675 H         1 PHENYL      0.0230 
     39 H17        -6.6640   12.0747  -13.8736 H         1 PHENYL      0.0230 
@<TRIPOS>BOND
     1    2    3 ar   
     2    2    7 ar   
     3    7    6 ar   
     4    6    5 ar   
     5    5    4 ar   
     6    4    3 ar   
     7    2    1 1    
     8    3    8 1    
     9    8    9 1    
    10    9   10 1    
    11   10   11 1    
    12   11   12 1    
    13    8   12 1    
    14    8   13 1    
    15   13   14 1    
    16   14   15 1    
    17   15   16 2    
    18   16   17 1    
    19   17   18 2    
    20   14   18 1    
    21   11   19 1    
    22   19   20 1    
    23   20   21 1    
    24    6   22 1    
    25    4   23 1    
    26    5   24 1    
    27    7   25 1    
    28   10   26 1    
    29   10   27 1    
    30   11   28 1    
    31   13   29 1    
    32   13   30 1    
    33   15   31 1    
    34   17   32 1    
    35   19   33 1    
    36   19   34 1    
    37   20   35 1    
    38   20   36 1    
    39   21   37 1    
    40   21   38 1    
    41   21   39 1    
@<TRIPOS>SUBSTRUCTURE
     1 PHENYL      2 PERM              0 ****  ****    0 ROOT 
@<TRIPOS>NORMAL
@<TRIPOS>FF_PBC
FORCE_FIELD_SETUP_FEATURE Force Field Setup information
v1.0  0 0.000000 0.000000 0.000000 0.000000 0.000000 0.000000 NONE 0 0 0 0 1 0 0 0 0 0 0 0 0
@<TRIPOS>RENDERING_ATTRS
ANTIALIASED_LINES 
*
