#	Name:			PISM01011.1
#	Creating user name:	malab
#	Creation time:		Tue Jul 02 10:08:54 2019

#	Modifying user name:	malab
#	Modification time:	Tue Jul 02 10:16:03 2019

@<TRIPOS>MOLECULE
PISM01011.1
   55    57     1     1     0
SMALL
GAST_HUCK


@<TRIPOS>ATOM
      1 C1         11.6019  -10.6365    7.5854 C.3       1 <1>        -0.0353 
      2 C2         12.0851   -9.7692    8.7306 C.2       1 <1>        -0.0766 
      3 C3         13.3646  -10.2141    9.4005 C.3       1 <1>        -0.0210 
      4 C4         13.2395  -10.2589   10.9448 C.3       1 <1>        -0.0292 
      5 C5         13.5189   -8.8835   11.5995 C.3       1 <1>        -0.0077 
      6 C6         12.5852   -7.7698   11.1990 C.2       1 <1>        -0.0210 
      7 C7         11.7311   -7.7111   10.1745 C.2       1 <1>        -0.0193 
      8 C8         11.4077   -8.6744    9.1039 C.2       1 <1>        -0.0930 
      9 C9         11.0772   -6.4010   10.2802 C.2       1 <1>         0.0886 
     10 C10        11.7184   -5.4707   11.2815 C.3       1 <1>         0.1382 
     11 C11        12.5794   -6.5236   12.0491 C.3       1 <1>         0.1231 
     12 O12        10.0783   -6.1118    9.6394 O.2       1 <1>        -0.3873 
     13 C13        10.6529   -4.6766   12.0113 C.2       1 <1>         0.1022 
     14 C14        10.3717   -4.7906   13.4531 C.2       1 <1>         0.2521 
     15 O15        12.6060   -4.5534   10.6061 O.3       1 <1>        -0.4429 
     16 C16         9.8876   -3.8183   11.3262 C.2       1 <1>         0.1679 
     17 O17        10.1436   -3.5978   10.0270 O.3       1 <1>        -0.1891 
     18 C18         9.0626   -3.0048    9.2885 C.3       1 <1>         0.2675 
     19 O19         9.5465   -2.7807    7.9500 O.3       1 <1>        -0.2254 
     20 C20         8.8819   -3.6391    7.1865 C.2       1 <1>         0.2500 
     21 C21         7.8794   -4.4440    7.8745 C.2       1 <1>         0.0297 
     22 C22         7.9709   -4.0399    9.1397 C.2       1 <1>         0.0047 
     23 O23         9.0901   -3.7290    5.9890 O.2       1 <1>        -0.3691 
     24 C24         6.9577   -5.4827    7.2973 C.3       1 <1>        -0.0323 
     25 O25        12.3594   -6.7509   13.4588 O.3       1 <1>        -0.2680 
     26 C26        11.3107   -7.4857   13.8795 C.2       1 <1>         0.2324 
     27 C27        10.2441   -8.0592   12.9769 C.3       1 <1>         0.0374 
     28 O28        11.2436   -7.7171   15.0749 O.2       1 <1>        -0.3705 
     29 O29         9.3209   -5.3093   13.7876 O.2       1 <1>        -0.3646 
     30 O30        11.1930   -4.2995   14.3941 O.3       1 <1>        -0.2834 
     31 C31        12.3165   -3.5340   13.9153 C.3       1 <1>         0.0643 
     32 H1         12.3940  -10.7114    6.8252 H         1 <1>         0.0403 
     33 H2         10.6985  -10.2448    7.0941 H         1 <1>         0.0403 
     34 H3         11.3727  -11.6451    7.9611 H         1 <1>         0.0403 
     35 H4         14.1918   -9.5606    9.0824 H         1 <1>         0.0441 
     36 H5         13.6063  -11.2353    9.0609 H         1 <1>         0.0441 
     37 H6         13.9881  -10.9652   11.3454 H         1 <1>         0.0321 
     38 H7         12.2417  -10.6316   11.2288 H         1 <1>         0.0321 
     39 H8         14.5469   -8.5625   11.3676 H         1 <1>         0.0492 
     40 H9         13.4486   -9.0155   12.6917 H         1 <1>         0.0492 
     41 H10        10.4972   -8.4260    8.5590 H         1 <1>         0.0229 
     42 H11        13.6153   -6.1500   12.0280 H         1 <1>         0.0736 
     43 H12        12.1636   -4.0439    9.9324 H         1 <1>         0.1861 
     44 H13         9.0746   -3.3194   11.8613 H         1 <1>         0.2029 
     45 H14         8.7072   -2.0459    9.7019 H         1 <1>         0.1277 
     46 H15         7.3532   -4.4223    9.9512 H         1 <1>         0.0711 
     47 H16         7.1262   -6.4451    7.8035 H         1 <1>         0.0347 
     48 H17         7.1479   -5.6080    6.2209 H         1 <1>         0.0347 
     49 H18         5.9116   -5.1749    7.4430 H         1 <1>         0.0347 
     50 H19        10.6217   -8.9366   12.4360 H         1 <1>         0.0483 
     51 H20         9.8373   -7.3279   12.2721 H         1 <1>         0.0483 
     52 H21         9.4043   -8.3961   13.6028 H         1 <1>         0.0483 
     53 H22        13.0269   -4.1355   13.3334 H         1 <1>         0.0574 
     54 H23        12.8477   -3.1584   14.8022 H         1 <1>         0.0574 
     55 H24        11.9924   -2.6668   13.3186 H         1 <1>         0.0574 
@<TRIPOS>BOND
     1    2    1 1    
     2    2    3 1    
     3    3    4 1    
     4    4    5 1    
     5    5    6 1    
     6    6    7 2    
     7    7    8 1    
     8    2    8 2    
     9    7    9 1    
    10    9   10 1    
    11   10   11 1    
    12    6   11 1    
    13    9   12 2    
    14   10   13 1    
    15   13   14 1    
    16   10   15 1    
    17   13   16 2    
    18   16   17 1    
    19   17   18 1    
    20   18   19 1    
    21   19   20 1    
    22   20   21 1    
    23   21   22 2    
    24   18   22 1    
    25   20   23 2    
    26   21   24 1    
    27   11   25 1    
    28   25   26 1    
    29   26   27 1    
    30   26   28 2    
    31   14   29 2    
    32   14   30 1    
    33   30   31 1    
    34    1   32 1    
    35    1   33 1    
    36    1   34 1    
    37    3   35 1    
    38    3   36 1    
    39    4   37 1    
    40    4   38 1    
    41    5   39 1    
    42    5   40 1    
    43    8   41 1    
    44   11   42 1    
    45   15   43 1    
    46   16   44 1    
    47   18   45 1    
    48   22   46 1    
    49   24   47 1    
    50   24   48 1    
    51   24   49 1    
    52   27   50 1    
    53   27   51 1    
    54   27   52 1    
    55   31   53 1    
    56   31   54 1    
    57   31   55 1    
@<TRIPOS>SUBSTRUCTURE
     1 ****        2 TEMP              0 ****  ****    0 ROOT 
@<TRIPOS>NORMAL
@<TRIPOS>FF_PBC
FORCE_FIELD_SETUP_FEATURE Force Field Setup information
v1.0  0 0.000000 0.000000 0.000000 0.000000 0.000000 0.000000 NONE 0 0 0 0 1 0 0 0 0 0 0 0 0
