#	Name:			PISM00760.1
#	Creating user name:	baoopengkun
#	Creation time:		Sun Dec 02 11:38:55 2018

#	Modifying user name:	baoopengkun
#	Modification time:	Sun Dec 02 11:45:38 2018

@<TRIPOS>MOLECULE
PISM00760.1
   33    34     1     2     0
SMALL
GAST_HUCK


@<TRIPOS>ATOM
      1 C1         -3.1014    4.8441   -2.6400 C.2       1 <1>         0.1081 
      2 C2         -3.8570    5.9290   -1.9107 C.3       1 <1>         0.0245 
      3 C3         -3.4463    5.9891   -0.4160 C.3       1 <1>        -0.0349 
      4 C4         -1.2710    4.7392   -0.8049 C.3       1 <1>        -0.0269 
      5 C5         -1.8133    4.3050   -2.1481 C.2       1 <1>         0.0184 
      6 O6         -3.5771    4.3915   -3.6692 O.2       1 <1>        -0.3998 
      7 C7         -1.1247    3.4240   -2.8882 C.2       1 <1>         0.0764 
      8 O8          0.0351    2.9310   -2.4249 O.3       1 <1>        -0.2718 
      9 C9          0.6554    1.9586   -3.2859 C.3       1 <1>         0.2384 
     10 O10         1.8975    1.5719   -2.6647 O.3       1 <1>        -0.2305 
     11 C11         1.7662    0.2820   -2.3821 C.2       1 <1>         0.2495 
     12 C12         0.5039   -0.3240   -2.7884 C.2       1 <1>         0.0293 
     13 C13        -0.1619    0.6870   -3.3425 C.2       1 <1>        -0.0010 
     14 C14         0.0588   -1.7519   -2.6266 C.3       1 <1>        -0.0323 
     15 O15         2.6488   -0.3495   -1.8270 O.2       1 <1>        -0.3691 
     16 C16        -1.9039    6.0610   -0.3015 C.3       1 <1>        -0.0462 
     17 C17        -5.3927    5.7399   -2.0468 C.3       1 <1>        -0.0478 
     18 H1         -3.5883    6.8801   -2.4007 H         1 <1>         0.0508 
     19 H2         -3.8130    5.0960    0.1159 H         1 <1>         0.0292 
     20 H3         -3.8958    6.8797    0.0542 H         1 <1>         0.0292 
     21 H4         -0.1770    4.8721   -0.8444 H         1 <1>         0.0353 
     22 H5         -1.4918    3.9312   -0.0889 H         1 <1>         0.0353 
     23 H6         -1.5327    3.1291   -3.8580 H         1 <1>         0.1073 
     24 H7          0.8732    2.3608   -4.2899 H         1 <1>         0.1210 
     25 H8         -1.1598    0.5995   -3.7702 H         1 <1>         0.0706 
     26 H9          0.8594   -2.3531   -2.1700 H         1 <1>         0.0347 
     27 H10        -0.1909   -2.1782   -3.6096 H         1 <1>         0.0347 
     28 H11        -0.8301   -1.7911   -1.9796 H         1 <1>         0.0347 
     29 H12        -1.5298    6.9075   -0.9012 H         1 <1>         0.0281 
     30 H13        -1.6106    6.2310    0.7485 H         1 <1>         0.0281 
     31 H14        -5.6957    5.7704   -3.1053 H         1 <1>         0.0255 
     32 H15        -5.9287    6.5388   -1.5110 H         1 <1>         0.0255 
     33 H16        -5.6928    4.7681   -1.6253 H         1 <1>         0.0255 
@<TRIPOS>BOND
     1    2    1 1    
     2    2    3 1    
     3    5    4 1    
     4    4   16 1    
     5    1    5 1    
     6    1    6 2    
     7    5    7 2    
     8    7    8 1    
     9    8    9 1    
    10    9   10 1    
    11   10   11 1    
    12   12   11 1    
    13   13   12 2    
    14    9   13 1    
    15   12   14 1    
    16   11   15 2    
    17    3   16 1    
    18    2   17 1    
    19    2   18 1    
    20    3   19 1    
    21    3   20 1    
    22    4   21 1    
    23    4   22 1    
    24    7   23 1    
    25    9   24 1    
    26   13   25 1    
    27   14   26 1    
    28   14   27 1    
    29   14   28 1    
    30   16   29 1    
    31   16   30 1    
    32   17   31 1    
    33   17   32 1    
    34   17   33 1    
@<TRIPOS>SUBSTRUCTURE
     1 ****        2 TEMP              0 ****  ****    0 ROOT 
@<TRIPOS>NORMAL
@<TRIPOS>FF_PBC
FORCE_FIELD_SETUP_FEATURE Force Field Setup information
v1.0  0 0.000000 0.000000 0.000000 0.000000 0.000000 0.000000 NONE 0 0 0 0 1 0 0 0 0 0 0 0 0
@<TRIPOS>RENDERING_ATTRS
ANTIALIASED_LINES 
*
