#	Name:			PISM01033.3
#	Creating user name:	malab
#	Creation time:		Tue Jul 02 17:12:55 2019

#	Modifying user name:	malab
#	Modification time:	Tue Jul 02 17:15:23 2019

@<TRIPOS>MOLECULE
PISM01033.3
   40    41     1     1     0
SMALL
GAST_HUCK


@<TRIPOS>ATOM
      1 N1         -8.3817    1.4110   -4.8323 N.pl3     1 <1>        -0.1706 
      2 C2         -8.6299    0.2410   -4.3254 C.2       1 <1>         0.1284 
      3 N3         -9.7905   -0.1260   -4.6285 N.2       1 <1>        -0.2870 
      4 C4        -10.4362    0.8663   -5.4417 C.2       1 <1>         0.0618 
      5 N5         -9.5112    1.7487   -5.5165 N.2       1 <1>        -0.1897 
      6 C6         -7.1413    2.1748   -4.7512 C.3       1 <1>         0.1222 
      7 C7         -6.8100    2.6730   -3.3061 C.3       1 <1>         0.0945 
      8 O8         -5.4313    3.0955   -3.3570 O.3       1 <1>        -0.3879 
      9 C9         -7.7323    3.7547   -2.6264 C.3       1 <1>        -0.0085 
     10 C10        -7.5555    3.6795   -1.0741 C.3       1 <1>        -0.0576 
     11 C11        -7.3647    5.2071   -3.0610 C.3       1 <1>        -0.0576 
     12 C12        -9.2393    3.4981   -2.9228 C.3       1 <1>        -0.0576 
     13 C13        -7.0697    3.2515   -5.8677 C.3       1 <1>         0.0165 
     14 C14        -6.9489    2.5827   -7.2473 C.ar      1 <1>        -0.0396 
     15 C15        -5.7114    2.0800   -7.6669 C.ar      1 <1>        -0.0596 
     16 C16        -5.5864    1.4483   -8.9076 C.ar      1 <1>        -0.0546 
     17 C17        -6.6993    1.3203   -9.7422 C.ar      1 <1>         0.0330 
     18 C18        -7.9339    1.8324   -9.3361 C.ar      1 <1>        -0.0546 
     19 C19        -8.0564    2.4666   -8.0963 C.ar      1 <1>        -0.0596 
     20 Cl20       -6.5467    0.5207  -11.2935 Cl        1 <1>        -0.0771 
     21 H1         -7.9489   -0.3602   -3.7242 H         1 <1>         0.1361 
     22 H2        -11.4343    0.8693   -5.8771 H         1 <1>         0.0864 
     23 H3         -6.3411    1.4519   -4.9892 H         1 <1>         0.0729 
     24 H4         -6.8638    1.7595   -2.6880 H         1 <1>         0.0633 
     25 H5         -5.0373    3.2675   -2.5084 H         1 <1>         0.2099 
     26 H6         -6.5161    3.8709   -0.7718 H         1 <1>         0.0236 
     27 H7         -7.8468    2.6887   -0.6923 H         1 <1>         0.0236 
     28 H8         -8.1858    4.4269   -0.5675 H         1 <1>         0.0236 
     29 H9         -7.5069    5.3712   -4.1347 H         1 <1>         0.0236 
     30 H10        -6.3178    5.4405   -2.8172 H         1 <1>         0.0236 
     31 H11        -8.0010    5.9354   -2.5349 H         1 <1>         0.0236 
     32 H12        -9.4744    3.6901   -3.9769 H         1 <1>         0.0236 
     33 H13        -9.8767    4.1688   -2.3264 H         1 <1>         0.0236 
     34 H14        -9.5135    2.4611   -2.6769 H         1 <1>         0.0236 
     35 H15        -6.1896    3.8966   -5.7194 H         1 <1>         0.0459 
     36 H16        -7.9672    3.8838   -5.8550 H         1 <1>         0.0459 
     37 H17        -4.8387    2.1777   -7.0288 H         1 <1>         0.0557 
     38 H18        -4.6256    1.0562   -9.2249 H         1 <1>         0.0606 
     39 H19        -8.7978    1.7365   -9.9859 H         1 <1>         0.0606 
     40 H20        -9.0206    2.8674   -7.8011 H         1 <1>         0.0557 
@<TRIPOS>BOND
     1    2    1 1    
     2    2    3 2    
     3    3    4 1    
     4    4    5 2    
     5    1    5 1    
     6    1    6 1    
     7    6    7 1    
     8    7    8 1    
     9    7    9 1    
    10    9   10 1    
    11    9   11 1    
    12    9   12 1    
    13    6   13 1    
    14   13   14 1    
    15   14   15 ar   
    16   15   16 ar   
    17   16   17 ar   
    18   17   18 ar   
    19   18   19 ar   
    20   14   19 ar   
    21   17   20 1    
    22    2   21 1    
    23    4   22 1    
    24    6   23 1    
    25    7   24 1    
    26    8   25 1    
    27   10   26 1    
    28   10   27 1    
    29   10   28 1    
    30   11   29 1    
    31   11   30 1    
    32   11   31 1    
    33   12   32 1    
    34   12   33 1    
    35   12   34 1    
    36   13   35 1    
    37   13   36 1    
    38   15   37 1    
    39   16   38 1    
    40   18   39 1    
    41   19   40 1    
@<TRIPOS>SUBSTRUCTURE
     1 ****        2 TEMP              0 ****  ****    0 ROOT 
@<TRIPOS>NORMAL
@<TRIPOS>FF_PBC
FORCE_FIELD_SETUP_FEATURE Force Field Setup information
v1.0  0 0.000000 0.000000 0.000000 0.000000 0.000000 0.000000 NONE 0 0 0 0 1 0 0 0 0 0 0 0 0
