#	Name:			PISM01206
#	Creating user name:	14062
#	Creation time:		Sun Apr 07 00:39:52 2019

#	Modifying user name:	14062
#	Modification time:	Sun Apr 07 00:43:00 2019

@<TRIPOS>MOLECULE
PISM01206
   44    45     1     1     0
SMALL
GAST_HUCK


@<TRIPOS>ATOM
      1 C1        -16.8614   12.9083  -13.3314 C.3       1 BENZYL      0.1646 
      2 O2        -15.7486   12.0791  -13.7186 O.3       1 BENZYL     -0.3021 
      3 C2        -16.0065   11.2455  -14.8071 C.ar      1 BENZYL      0.0899 
      4 C3        -16.3646    9.9067  -14.5999 C.ar      1 BENZYL     -0.0176 
      5 C4        -16.6485    9.1082  -15.7147 C.ar      1 BENZYL     -0.0750 
      6 C5        -16.5628    9.6299  -17.0086 C.ar      1 BENZYL     -0.0783 
      7 C6        -16.1890   10.9613  -17.2126 C.ar      1 BENZYL     -0.0616 
      8 C7        -15.9028   11.7614  -16.1020 C.ar      1 BENZYL     -0.0383 
      9 C9        -16.5524   13.7299  -12.0991 C.2       1 BENZYL      0.2473 
     10 O10       -15.5756   13.4430  -11.4260 O.2       1 BENZYL     -0.3733 
     11 N11       -17.3420   14.7193  -11.7728 N.pl3     1 BENZYL     -0.1716 
     12 N12       -17.0656   15.4501  -10.6649 N.2       1 BENZYL     -0.1840 
     13 C13       -17.7760   16.4304  -10.2687 C.2       1 BENZYL      0.0462 
     14 C14       -17.3784   17.1838   -9.0178 C.ar      1 BENZYL      0.0166 
     15 C15       -16.2424   16.8102   -8.2913 C.ar      1 BENZYL      0.0181 
     16 N16       -15.8867   17.4821   -7.1763 N.ar      1 BENZYL     -0.2975 
     17 C17       -16.6048   18.5299   -6.7229 C.ar      1 BENZYL      0.0096 
     18 C18       -17.7490   18.9472   -7.4080 C.ar      1 BENZYL     -0.0352 
     19 C19       -18.1384   18.2672   -8.5650 C.ar      1 BENZYL     -0.0358 
     20 C20       -16.0993   11.5178  -18.6385 C.3       1 BENZYL     -0.0367 
     21 C21       -16.4451    9.3189  -13.1759 C.3       1 BENZYL     -0.0179 
     22 C22       -15.4267    8.1605  -13.0014 C.3       1 BENZYL     -0.0553 
     23 C23       -17.8918    8.8594  -12.8514 C.3       1 BENZYL     -0.0553 
     24 H1        -17.7332   12.2791  -13.0961 H         1 BENZYL      0.0866 
     25 H2        -17.1145   13.5831  -14.1633 H         1 BENZYL      0.0866 
     26 H3        -16.9390    8.0710  -15.5909 H         1 BENZYL      0.0510 
     27 H4        -16.7871    8.9942  -17.8596 H         1 BENZYL      0.0446 
     28 H5        -15.5948   12.7926  -16.2354 H         1 BENZYL      0.0461 
     29 H6        -18.1673   14.9384  -12.3516 H         1 BENZYL      0.2351 
     30 H7        -18.6681   16.7426  -10.8114 H         1 BENZYL      0.0814 
     31 H8        -15.6323   15.9741   -8.6164 H         1 BENZYL      0.0824 
     32 H9        -16.2855   19.0444   -5.8227 H         1 BENZYL      0.0809 
     33 H10       -18.3280   19.7902   -7.0445 H         1 BENZYL      0.0704 
     34 H11       -15.1984   11.1125  -19.1228 H         1 BENZYL      0.0376 
     35 H12       -16.0434   12.6167  -18.6441 H         1 BENZYL      0.0376 
     36 H13       -16.9857   11.2123  -19.2149 H         1 BENZYL      0.0376 
     37 H14       -16.1760   10.0909  -12.4349 H         1 BENZYL      0.0420 
     38 H15       -15.4292    7.8033  -11.9596 H         1 BENZYL      0.0250 
     39 H16       -14.4132    8.5152  -13.2464 H         1 BENZYL      0.0250 
     40 H17       -15.6676    7.3105  -13.6563 H         1 BENZYL      0.0250 
     41 H18       -18.5924    9.6968  -12.9932 H         1 BENZYL      0.0250 
     42 H19       -17.9591    8.5211  -11.8055 H         1 BENZYL      0.0250 
     43 H20       -18.2038    8.0291  -13.5017 H         1 BENZYL      0.0250 
     44 H21       -19.0256   18.5825   -9.1045 H         1 BENZYL      0.0732 
@<TRIPOS>BOND
     1    2    3 1    
     2    3    4 ar   
     3    3    8 ar   
     4    8    7 ar   
     5    7    6 ar   
     6    5    6 ar   
     7    4    5 ar   
     8    1    2 1    
     9    9    1 1    
    10    9   10 2    
    11   11    9 1    
    12   12   11 1    
    13   13   12 2    
    14   14   13 1    
    15   14   15 ar   
    16   15   16 ar   
    17   16   17 ar   
    18   17   18 ar   
    19   14   19 ar   
    20   18   19 ar   
    21    7   20 1    
    22    4   21 1    
    23   21   22 1    
    24   21   23 1    
    25    1   24 1    
    26    1   25 1    
    27    5   26 1    
    28    6   27 1    
    29    8   28 1    
    30   11   29 1    
    31   13   30 1    
    32   15   31 1    
    33   17   32 1    
    34   18   33 1    
    35   20   34 1    
    36   20   35 1    
    37   20   36 1    
    38   21   37 1    
    39   22   38 1    
    40   22   39 1    
    41   22   40 1    
    42   23   41 1    
    43   23   42 1    
    44   23   43 1    
    45   19   44 1    
@<TRIPOS>SUBSTRUCTURE
     1 BENZYL      2 PERM              0 ****  ****    0 ROOT 
@<TRIPOS>NORMAL
@<TRIPOS>FF_PBC
FORCE_FIELD_SETUP_FEATURE Force Field Setup information
v1.0  0 0.000000 0.000000 0.000000 0.000000 0.000000 0.000000 NONE 0 0 0 0 1 0 0 0 0 0 0 0 0
