#	Name:			PISM00260
#	Creating user name:	14062
#	Creation time:		Sat Apr 06 00:08:10 2019

#	Modifying user name:	14062
#	Modification time:	Sat Apr 06 00:16:04 2019

@<TRIPOS>MOLECULE
PISM00260
   35    36     1     1     0
SMALL
GAST_HUCK


@<TRIPOS>ATOM
      1 C1         -6.5220   -4.0305   -6.0236 C.ar      1 NO2         0.0370 
      2 C2         -6.7944   -2.7176   -5.6261 C.ar      1 NO2        -0.0109 
      3 C3         -7.9598   -2.0705   -6.0514 C.ar      1 NO2         0.0895 
      4 C4         -8.8135   -2.7123   -6.9538 C.ar      1 NO2        -0.0104 
      5 C5         -8.5231   -4.0071   -7.3935 C.ar      1 NO2        -0.0405 
      6 C6         -7.3847   -4.6682   -6.9224 C.ar      1 NO2        -0.0423 
      7 N7         -8.2598   -0.8278   -5.6041 N.pl3     1 NO2        -0.2356 
      8 C8         -8.3279   -0.5286   -4.3343 C.2       1 NO2         0.2169 
      9 C9         -8.1524   -1.5267   -3.2542 C.2       1 NO2         0.0167 
     10 C10        -7.8151   -1.1913   -2.0013 C.2       1 NO2        -0.0404 
     11 C11        -7.6082   -2.1994   -0.8882 C.ar      1 NO2        -0.0263 
     12 C12        -7.8627   -1.8020    0.4277 C.ar      1 NO2        -0.0630 
     13 C13        -7.7259   -2.7147    1.4755 C.ar      1 NO2        -0.0690 
     14 C14        -7.3370   -4.0307    1.2123 C.ar      1 NO2        -0.0337 
     15 C15        -7.0528   -4.4451   -0.0968 C.ar      1 NO2         0.1342 
     16 C16        -7.1644   -3.5054   -1.1325 C.ar      1 NO2        -0.0261 
     17 O17        -8.5544    0.6234   -4.0038 O.2       1 NO2        -0.3730 
     18 N          -6.6759   -5.7273   -0.3548 N.pl3     1 NO2         0.1217 
     19 C19        -5.2839   -4.7387   -5.4625 C.3       1 NO2         0.3736 
     20 F20        -5.1777   -4.4777   -4.1313 F         1 NO2        -0.2207 
     21 F21        -5.3603   -6.0852   -5.6397 F         1 NO2        -0.2207 
     22 F22        -4.1790   -4.2663   -6.0979 F         1 NO2        -0.2207 
     23 O          -6.5318   -6.0629   -1.5106 O.2       1 NO2        -0.1133 
     24 O          -6.5078   -6.4760    0.5835 O.2       1 NO2        -0.1133 
     25 H1         -6.0934   -2.1948   -4.9829 H         1 NO2         0.0743 
     26 H2         -9.7048   -2.2053   -7.3102 H         1 NO2         0.0781 
     27 H3         -9.1839   -4.5004   -8.1008 H         1 NO2         0.0671 
     28 H4         -7.1751   -5.6785   -7.2608 H         1 NO2         0.0764 
     29 H5         -8.4392   -0.0813   -6.2932 H         1 NO2         0.2096 
     30 H6         -8.3216   -2.5717   -3.5004 H         1 NO2         0.0674 
     31 H7         -7.6855   -0.1366   -1.7563 H         1 NO2         0.0747 
     32 H8         -8.1719   -0.7835    0.6424 H         1 NO2         0.0543 
     33 H9         -7.9244   -2.4006    2.4960 H         1 NO2         0.0593 
     34 H10        -7.2605   -4.7226    2.0451 H         1 NO2         0.0547 
     35 H11        -6.8898   -3.7893   -2.1412 H         1 NO2         0.0543 
@<TRIPOS>BOND
     1    2    1 ar   
     2    3    2 ar   
     3    3    4 ar   
     4    4    5 ar   
     5    5    6 ar   
     6    1    6 ar   
     7    7    3 1    
     8    8    7 1    
     9    9    8 1    
    10   10    9 2    
    11   11   10 1    
    12   11   12 ar   
    13   13   12 ar   
    14   14   13 ar   
    15   15   14 ar   
    16   15   16 ar   
    17   16   11 ar   
    18    8   17 2    
    19   18   23 2    
    20    1   19 1    
    21   19   20 1    
    22   19   21 1    
    23   19   22 1    
    24   18   24 2    
    25   18   15 1    
    26    2   25 1    
    27    4   26 1    
    28    5   27 1    
    29    6   28 1    
    30    7   29 1    
    31    9   30 1    
    32   10   31 1    
    33   12   32 1    
    34   13   33 1    
    35   14   34 1    
    36   16   35 1    
@<TRIPOS>SUBSTRUCTURE
     1 NO2        18 PERM              0 ****  ****    0 ROOT 
@<TRIPOS>NORMAL
@<TRIPOS>FF_PBC
FORCE_FIELD_SETUP_FEATURE Force Field Setup information
v1.0  0 0.000000 0.000000 0.000000 0.000000 0.000000 0.000000 NONE 0 0 0 0 1 0 0 0 0 0 0 0 0
