#	Name:			PISM00479
#	Creating user name:	baoopengkun
#	Creation time:		Wed Feb 27 22:08:35 2019

#	Modifying user name:	baoopengkun
#	Modification time:	Wed Feb 27 22:11:16 2019

@<TRIPOS>MOLECULE
PISM00479
   10    10     1     1     0
SMALL
GAST_HUCK


@<TRIPOS>ATOM
      1 C1         23.8661    4.1983  -11.1133 C.2       1 <1>        -0.0808 
      2 C2         25.1976    4.6040  -10.5081 C.3       1 <1>        -0.0076 
      3 C3         24.7307    3.2218  -10.9266 C.2       1 <1>        -0.0808 
      4 C4         26.2046    5.3081  -11.4442 C.3       1 <1>        -0.0555 
      5 H1         22.8804    4.5040  -11.4609 H         1 <1>         0.0575 
      6 H2         25.2012    4.8093   -9.4265 H         1 <1>         0.0383 
      7 H3         24.9560    2.1599  -11.0126 H         1 <1>         0.0575 
      8 H4         27.2282    5.0593  -11.1267 H         1 <1>         0.0238 
      9 H5         26.0612    6.3969  -11.3766 H         1 <1>         0.0238 
     10 H6         26.0684    4.9939  -12.4907 H         1 <1>         0.0238 
@<TRIPOS>BOND
     1    2    1 1    
     2    2    3 1    
     3    1    3 2    
     4    2    4 1    
     5    1    5 1    
     6    2    6 1    
     7    3    7 1    
     8    4    8 1    
     9    4    9 1    
    10    4   10 1    
@<TRIPOS>SUBSTRUCTURE
     1 ****        2 TEMP              0 ****  ****    0 ROOT 
@<TRIPOS>NORMAL
@<TRIPOS>FF_PBC
FORCE_FIELD_SETUP_FEATURE Force Field Setup information
v1.0  0 0.000000 0.000000 0.000000 0.000000 0.000000 0.000000 NONE 0 0 0 0 1 0 0 0 0 0 0 0 0
