#	Name:			PISM00678.1
#	Creating user name:	baoopengkun
#	Creation time:		Sat Jan 12 23:32:09 2019

#	Modifying user name:	baoopengkun
#	Modification time:	Sat Jan 12 23:32:41 2019

@<TRIPOS>MOLECULE
PISM00678.1
   40    41     1     1     0
SMALL
GAST_HUCK


@<TRIPOS>ATOM
      1 Cl1        -2.4520  -18.2439   -0.3318 Cl        1 <1>        -0.0771 
      2 C2         -2.6260  -16.5918   -0.8815 C.ar      1 <1>         0.0330 
      3 C3         -3.5034  -16.2875   -1.9245 C.ar      1 <1>        -0.0546 
      4 C4         -3.6289  -14.9693   -2.3706 C.ar      1 <1>        -0.0596 
      5 C5         -2.8874  -13.9485   -1.7658 C.ar      1 <1>        -0.0396 
      6 C6         -2.0225  -14.2510   -0.7074 C.ar      1 <1>        -0.0596 
      7 C7         -1.8825  -15.5737   -0.2748 C.ar      1 <1>        -0.0546 
      8 C8         -3.0181  -12.5018   -2.2584 C.3       1 <1>         0.0165 
      9 C9         -4.0568  -11.7499   -1.3920 C.3       1 <1>         0.1222 
     10 C10        -4.1779  -10.2398   -1.7768 C.3       1 <1>         0.0945 
     11 O11        -4.4641  -10.0426   -3.1777 O.3       1 <1>        -0.3879 
     12 C12        -5.2348   -9.4013   -0.9777 C.3       1 <1>        -0.0085 
     13 C13        -6.7034   -9.7287   -1.3964 C.3       1 <1>        -0.0576 
     14 C14        -4.9647   -7.8947   -1.2895 C.3       1 <1>        -0.0576 
     15 C15        -5.0987   -9.6122    0.5588 C.3       1 <1>        -0.0576 
     16 N16        -5.3132  -12.4791   -1.4126 N.pl3     1 <1>        -0.1706 
     17 C17        -6.0574  -12.7313   -2.4352 C.2       1 <1>         0.1284 
     18 N18        -7.0128  -13.4080   -1.9624 N.2       1 <1>        -0.2870 
     19 C19        -7.0019  -13.6857   -0.5394 C.2       1 <1>         0.0618 
     20 N20        -5.9064  -13.0511   -0.3409 N.2       1 <1>        -0.1897 
     21 H1         -4.0887  -17.0758   -2.3853 H         1 <1>         0.0606 
     22 H2         -4.3090  -14.7529   -3.1881 H         1 <1>         0.0557 
     23 H3         -1.4590  -13.4607   -0.2181 H         1 <1>         0.0557 
     24 H4         -1.1979  -15.8100    0.5341 H         1 <1>         0.0606 
     25 H5         -3.6727  -11.8115   -0.3623 H         1 <1>         0.0729 
     26 H6         -3.1911   -9.7884   -1.5586 H         1 <1>         0.0633 
     27 H7         -3.7602  -10.2950   -3.7663 H         1 <1>         0.2099 
     28 H8         -7.0145  -10.7190   -1.0457 H         1 <1>         0.0236 
     29 H9         -7.4072   -9.0078   -0.9528 H         1 <1>         0.0236 
     30 H10        -6.8302   -9.6938   -2.4886 H         1 <1>         0.0236 
     31 H11        -5.6781   -7.2367   -0.7698 H         1 <1>         0.0236 
     32 H12        -5.0475   -7.6980   -2.3700 H         1 <1>         0.0236 
     33 H13        -3.9524   -7.6027   -0.9672 H         1 <1>         0.0236 
     34 H14        -5.3776  -10.6376    0.8457 H         1 <1>         0.0236 
     35 H15        -5.7675   -8.9277    1.1029 H         1 <1>         0.0236 
     36 H16        -4.0656   -9.4139    0.8852 H         1 <1>         0.0236 
     37 H17        -6.7654  -13.0065   -3.2185 H         1 <1>         0.1361 
     38 H18        -7.9028  -14.1641   -0.9221 H         1 <1>         0.0864 
     39 H19        -3.3412  -12.5218   -3.3072 H         1 <1>         0.0459 
     40 H20        -2.0350  -12.0067   -2.2001 H         1 <1>         0.0459 
@<TRIPOS>BOND
     1    2    1 1    
     2    2    3 ar   
     3    3    4 ar   
     4    4    5 ar   
     5    5    6 ar   
     6    6    7 ar   
     7    2    7 ar   
     8    5    8 1    
     9    8    9 1    
    10    9   10 1    
    11   10   11 1    
    12   10   12 1    
    13   12   13 1    
    14   12   14 1    
    15   12   15 1    
    16    9   16 1    
    17   16   17 1    
    18   17   18 2    
    19   18   19 1    
    20   19   20 2    
    21   16   20 1    
    22    3   21 1    
    23    4   22 1    
    24    6   23 1    
    25    7   24 1    
    26    9   25 1    
    27   10   26 1    
    28   11   27 1    
    29   13   28 1    
    30   13   29 1    
    31   13   30 1    
    32   14   31 1    
    33   14   32 1    
    34   14   33 1    
    35   15   34 1    
    36   15   35 1    
    37   15   36 1    
    38   17   37 1    
    39   19   38 1    
    40    8   39 1    
    41    8   40 1    
@<TRIPOS>SUBSTRUCTURE
     1 ****        2 TEMP              0 ****  ****    0 ROOT 
@<TRIPOS>NORMAL
@<TRIPOS>FF_PBC
FORCE_FIELD_SETUP_FEATURE Force Field Setup information
v1.0  0 0.000000 0.000000 0.000000 0.000000 0.000000 0.000000 NONE 0 0 0 0 1 0 0 0 0 0 0 0 0
