#	Name:			PISM00601
#	Creating user name:	baoopengkun
#	Creation time:		Mon Dec 10 12:04:47 2018

#	Modifying user name:	baoopengkun
#	Modification time:	Mon Dec 10 12:05:03 2018

@<TRIPOS>MOLECULE
PISM00601
   43    45     1     2     0
SMALL
GAST_HUCK


@<TRIPOS>ATOM
      1 C1         -4.0730   11.0929   -3.1044 C.ar      1 <1>        -0.0415 
      2 C2         -5.2722   10.5496   -3.5745 C.ar      1 <1>         0.0015 
      3 C3         -5.2503    9.4834   -4.4770 C.ar      1 <1>         0.1287 
      4 C4         -4.0294    8.9643   -4.9143 C.ar      1 <1>         0.0015 
      5 C5         -2.8307    9.5059   -4.4417 C.ar      1 <1>        -0.0415 
      6 C6         -2.8483   10.5807   -3.5462 C.ar      1 <1>        -0.0073 
      7 C7         -1.5271   11.1883   -3.0521 C.3       1 <1>         0.1801 
      8 C8         -1.0439   10.4070   -1.8050 C.3       1 <1>         0.1011 
      9 N9          0.2684   10.7803   -1.2935 N.pl3     1 <1>        -0.1831 
     10 N10         0.9993   10.0790   -0.3813 N.2       1 <1>        -0.1909 
     11 C11         2.1329   10.6155   -0.1209 C.2       1 <1>         0.0618 
     12 N12         2.0856   11.7697   -0.9749 N.2       1 <1>        -0.2870 
     13 C13         1.0052   11.8009   -1.6135 C.2       1 <1>         0.1268 
     14 O14        -1.6539   12.5927   -2.7954 O.3       1 <1>        -0.3899 
     15 C15        -1.7179   13.2305   -4.0744 C.3       1 <1>         0.0623 
     16 C16        -0.7459   12.3562   -4.9060 C.3       1 <1>         0.0706 
     17 O17        -0.5432   11.1876   -4.0954 O.3       1 <1>        -0.3871 
     18 O18        -6.4465    8.9377   -4.9416 O.3       1 <1>        -0.2963 
     19 C19        -1.2923   11.9985   -6.3134 C.3       1 <1>        -0.0258 
     20 C20        -0.3033   11.0795   -7.0797 C.3       1 <1>        -0.0535 
     21 C21        -0.8570   10.6973   -8.4767 C.3       1 <1>        -0.0652 
     22 H22        -4.0945   11.9142   -2.3946 H         1 <1>         0.0824 
     23 H23        -6.2234   10.9518   -3.2422 H         1 <1>         0.0651 
     24 H3         -4.0179    8.1409   -5.6207 H         1 <1>         0.0651 
     25 H4         -1.8838    9.0906   -4.7726 H         1 <1>         0.0824 
     26 H5         -0.9944    9.3374   -2.0574 H         1 <1>         0.0575 
     27 H6         -1.7754   10.5470   -0.9956 H         1 <1>         0.0575 
     28 H7          2.9162   10.2857    0.5597 H         1 <1>         0.0863 
     29 H8          0.7630   12.5879   -2.3245 H         1 <1>         0.1361 
     30 H9         -1.4189   14.2881   -4.0095 H         1 <1>         0.0573 
     31 H10        -2.7476   13.1749   -4.4609 H         1 <1>         0.0573 
     32 H11         0.2342   12.8529   -4.9961 H         1 <1>         0.0606 
     33 H12        -1.4485   12.9297   -6.8816 H         1 <1>         0.0290 
     34 H13        -2.2622   11.4872   -6.2176 H         1 <1>         0.0290 
     35 H14        -0.1275   10.1595   -6.4980 H         1 <1>         0.0263 
     36 H15         0.6625   11.5974   -7.2024 H         1 <1>         0.0263 
     37 H16        -0.1397   10.0487   -9.0042 H         1 <1>         0.0230 
     38 H17        -1.0247   11.6006   -9.0836 H         1 <1>         0.0230 
     39 H18        -1.8106   10.1556   -8.3765 H         1 <1>         0.0230 
     40 C40        -6.9577    7.8731   -4.1232 C.3       1 <1>         0.0687 
     41 H1         -7.8955    7.5128   -4.5713 H         1 <1>         0.0597 
     42 H2         -7.1685    8.2284   -3.1023 H         1 <1>         0.0597 
     43 H19        -6.2439    7.0356   -4.0778 H         1 <1>         0.0597 
@<TRIPOS>BOND
     1    2    1 ar   
     2    2    3 ar   
     3    3    4 ar   
     4    4    5 ar   
     5    5    6 ar   
     6    1    6 ar   
     7    6    7 1    
     8    7    8 1    
     9    8    9 1    
    10    9   10 1    
    11   10   11 2    
    12   11   12 1    
    13   12   13 2    
    14    9   13 1    
    15    7   14 1    
    16   14   15 1    
    17   15   16 1    
    18   16   17 1    
    19    7   17 1    
    20    3   18 1    
    21   16   19 1    
    22   19   20 1    
    23   20   21 1    
    24    1   22 1    
    25    2   23 1    
    26    4   24 1    
    27    5   25 1    
    28    8   26 1    
    29    8   27 1    
    30   11   28 1    
    31   13   29 1    
    32   15   30 1    
    33   15   31 1    
    34   16   32 1    
    35   19   33 1    
    36   19   34 1    
    37   20   35 1    
    38   20   36 1    
    39   21   37 1    
    40   21   38 1    
    41   21   39 1    
    42   18   40 1    
    43   40   41 1    
    44   40   42 1    
    45   40   43 1    
@<TRIPOS>SUBSTRUCTURE
     1 ****        3 TEMP              0 ****  ****    0 ROOT 
@<TRIPOS>NORMAL
@<TRIPOS>FF_PBC
FORCE_FIELD_SETUP_FEATURE Force Field Setup information
v1.0  0 0.000000 0.000000 0.000000 0.000000 0.000000 0.000000 NONE 0 0 0 0 1 0 0 0 0 0 0 0 0
@<TRIPOS>RENDERING_ATTRS
ANTIALIASED_LINES 
*
