#	Name:			PISM01019
#	Creating user name:	malab
#	Creation time:		Mon Jul 01 22:14:48 2019

#	Modifying user name:	malab
#	Modification time:	Mon Jul 01 22:30:50 2019

@<TRIPOS>MOLECULE
PISM01019
   36    38     1     1     0
SMALL
GAST_HUCK


@<TRIPOS>ATOM
      1 C1          5.7886   17.9379   29.4171 C.ar      1 NO2        -0.0550 
      2 C2          5.4667   18.0336   27.0375 C.ar      1 NO2        -0.0550 
      3 C3          5.2002   19.4030   27.1286 C.ar      1 NO2        -0.0481 
      4 C4          5.2395   20.0661   28.3630 C.ar      1 NO2         0.1177 
      5 C5          5.5479   19.3125   29.5041 C.ar      1 NO2        -0.0481 
      6 C6          5.7503   17.2806   28.1823 C.ar      1 NO2         0.0274 
      7 N7          5.9835   15.9440   28.0953 N.pl3     1 NO2        -0.3119 
      8 C8          7.0126   15.3123   28.9200 C.3       1 NO2         0.0448 
      9 C9          7.5164   14.0021   28.2634 C.3       1 NO2         0.0557 
     10 N10         6.3655   13.1121   28.0868 N.am      1 NO2        -0.2393 
     11 C11         5.0698   13.6666   27.6930 C.3       1 NO2         0.0557 
     12 C12         5.2261   15.1150   27.1588 C.3       1 NO2         0.0448 
     13 C13         6.5224   11.7730   28.2960 C.2       1 NO2         0.3533 
     14 O14         7.6475   11.3417   28.4970 O.2       1 NO2        -0.3616 
     15 N15         5.5267   10.9214   28.2993 N.pl3     1 NO2        -0.0704 
     16 N16         4.2018   11.1423   28.1441 N.2       1 NO2        -0.0739 
     17 N17         3.4881   10.0073   28.2194 N.2       1 NO2        -0.2236 
     18 C18         4.5024    9.0115   28.4506 C.2       1 NO2         0.0266 
     19 C19         5.6825    9.6363   28.4863 C.2       1 NO2         0.0968 
     20 N           4.9862   21.4003   28.4509 N.pl3     1 NO2         0.1133 
     21 O           4.7412   22.0069   27.4303 O.2       1 NO2        -0.1164 
     22 O           5.0164   21.9199   29.5456 O.2       1 NO2        -0.1164 
     23 H1          5.9996   17.3867   30.3266 H         1 NO2         0.0485 
     24 H2          5.4571   17.5636   26.0602 H         1 NO2         0.0485 
     25 H3          4.9630   19.9435   26.2178 H         1 NO2         0.0487 
     26 H4          5.6035   19.7844   30.4800 H         1 NO2         0.0487 
     27 H5          6.5811   15.0606   29.9023 H         1 NO2         0.0528 
     28 H6          7.8645   15.9979   29.0661 H         1 NO2         0.0528 
     29 H7          8.2986   13.5823   28.9182 H         1 NO2         0.0542 
     30 H8          7.9681   14.2206   27.2830 H         1 NO2         0.0542 
     31 H9          4.3965   13.6776   28.5655 H         1 NO2         0.0542 
     32 H10         4.6136   13.0854   26.8747 H         1 NO2         0.0542 
     33 H11         4.2222   15.5354   26.9765 H         1 NO2         0.0528 
     34 H12         5.7750   15.0893   26.2033 H         1 NO2         0.0528 
     35 H13         4.3256    7.9435   28.5732 H         1 NO2         0.0560 
     36 H14         6.6231    9.1088   28.6510 H         1 NO2         0.1050 
@<TRIPOS>BOND
     1    1    6 ar   
     2    2    6 ar   
     3    3    2 ar   
     4    4    3 ar   
     5    4    5 ar   
     6    5    1 ar   
     7    6    7 1    
     8    7    8 1    
     9    8    9 1    
    10    9   10 1    
    11   11   10 1    
    12   12   11 1    
    13    7   12 1    
    14   10   13 am   
    15   13   14 2    
    16   13   15 1    
    17   15   16 1    
    18   16   17 2    
    19   18   17 1    
    20   19   18 2    
    21   15   19 1    
    22   20   21 2    
    23   20   22 2    
    24   20    4 1    
    25    1   23 1    
    26    2   24 1    
    27    3   25 1    
    28    5   26 1    
    29    8   27 1    
    30    8   28 1    
    31    9   29 1    
    32    9   30 1    
    33   11   31 1    
    34   11   32 1    
    35   12   33 1    
    36   12   34 1    
    37   18   35 1    
    38   19   36 1    
@<TRIPOS>SUBSTRUCTURE
     1 NO2        20 PERM              0 ****  ****    0 ROOT 
@<TRIPOS>NORMAL
@<TRIPOS>FF_PBC
FORCE_FIELD_SETUP_FEATURE Force Field Setup information
v1.0  0 0.000000 0.000000 0.000000 0.000000 0.000000 0.000000 NONE 0 0 0 0 1 0 0 0 0 0 0 0 0
