#	Name:			PISM01034.3
#	Creating user name:	malab
#	Creation time:		Tue Jul 02 17:12:55 2019

#	Modifying user name:	malab
#	Modification time:	Tue Jul 02 17:49:01 2019

@<TRIPOS>MOLECULE
PISM01034.3
   45    45     1     1     0
SMALL
GAST_HUCK


@<TRIPOS>ATOM
      1 N1         -9.7365    1.2177   -5.6129 N.pl3     1 <1>        -0.1726 
      2 C2        -10.2837    0.0615   -5.3857 C.2       1 <1>         0.1282 
      3 N3        -11.2837   -0.0989   -6.1261 N.2       1 <1>        -0.2870 
      4 C4        -11.4686    1.0434   -6.9768 C.2       1 <1>         0.0618 
      5 N5        -10.4884    1.7778   -6.6028 N.2       1 <1>        -0.1898 
      6 C6         -8.5354    1.7735   -4.9955 C.3       1 <1>         0.1128 
      7 C7         -8.7853    2.1801   -3.5032 C.3       1 <1>         0.0926 
      8 O8         -7.5450    2.1933   -2.7709 O.3       1 <1>        -0.3880 
      9 C9         -9.6882    3.4191   -3.1474 C.3       1 <1>        -0.0087 
     10 C10       -10.1003    3.2972   -1.6449 C.3       1 <1>        -0.0576 
     11 C11        -8.9646    4.7933   -3.3031 C.3       1 <1>        -0.0576 
     12 C12       -10.9936    3.4304   -3.9955 C.3       1 <1>        -0.0576 
     13 C13        -7.8955    2.8428   -5.9260 C.3       1 <1>        -0.0175 
     14 C14        -7.3671    2.2147   -7.2478 C.3       1 <1>        -0.0500 
     15 C15        -6.2668    2.6681   -9.5214 C.3       1 <1>        -0.0533 
     16 C16        -5.6776    3.7475  -10.4699 C.3       1 <1>        -0.0559 
     17 C17        -5.1731    3.1190  -11.7951 C.3       1 <1>        -0.0653 
     18 H1         -9.9436   -0.6821   -4.6658 H         1 <1>         0.1361 
     19 C19        -6.7808    3.2964   -8.1969 C.3       1 <1>        -0.0530 
     20 H2        -12.2289    1.2339   -7.7327 H         1 <1>         0.0863 
     21 H3         -7.8089    0.9441   -4.9433 H         1 <1>         0.0705 
     22 H4         -9.3047    1.3027   -3.0843 H         1 <1>         0.0631 
     23 H5         -6.9376    2.8681   -3.0505 H         1 <1>         0.2099 
     24 H6        -10.7069    2.3951   -1.4699 H         1 <1>         0.0236 
     25 H7        -10.6956    4.1655   -1.3225 H         1 <1>         0.0236 
     26 H8         -9.2078    3.2402   -1.0027 H         1 <1>         0.0236 
     27 H9         -8.1102    4.8777   -2.6160 H         1 <1>         0.0236 
     28 H10        -9.6583    5.6138   -3.0626 H         1 <1>         0.0236 
     29 H11        -8.6028    4.9669   -4.3220 H         1 <1>         0.0236 
     30 H12       -10.7796    3.6838   -5.0414 H         1 <1>         0.0236 
     31 H13       -11.6992    4.1855   -3.6163 H         1 <1>         0.0236 
     32 H14       -11.4926    2.4499   -3.9606 H         1 <1>         0.0236 
     33 H15        -7.0537    3.3390   -5.4193 H         1 <1>         0.0297 
     34 H16        -8.6474    3.5989   -6.1918 H         1 <1>         0.0297 
     35 H17        -8.1858    1.6892   -7.7652 H         1 <1>         0.0266 
     36 H18        -6.5806    1.4772   -7.0176 H         1 <1>         0.0266 
     37 H19        -7.1005    2.1554  -10.0290 H         1 <1>         0.0265 
     38 H20        -5.4889    1.9208   -9.2939 H         1 <1>         0.0265 
     39 H21        -4.8373    4.2583   -9.9707 H         1 <1>         0.0263 
     40 H22        -6.4510    4.4994  -10.6998 H         1 <1>         0.0263 
     41 H23        -4.7568    3.9000  -12.4510 H         1 <1>         0.0230 
     42 H24        -6.0014    2.6225  -12.3244 H         1 <1>         0.0230 
     43 H25        -4.3863    2.3755  -11.5931 H         1 <1>         0.0230 
     44 H26        -5.9491    3.8141   -7.6914 H         1 <1>         0.0265 
     45 H27        -7.5605    4.0404   -8.4292 H         1 <1>         0.0265 
@<TRIPOS>BOND
     1    2    1 1    
     2    2    3 2    
     3    3    4 1    
     4    4    5 2    
     5    1    5 1    
     6    1    6 1    
     7    6    7 1    
     8    7    8 1    
     9    7    9 1    
    10    9   10 1    
    11    9   11 1    
    12    9   12 1    
    13    6   13 1    
    14   13   14 1    
    15   19   15 1    
    16   15   16 1    
    17   16   17 1    
    18    2   18 1    
    19    4   20 1    
    20   14   19 1    
    21    6   21 1    
    22    7   22 1    
    23    8   23 1    
    24   10   24 1    
    25   10   25 1    
    26   10   26 1    
    27   11   27 1    
    28   11   28 1    
    29   11   29 1    
    30   12   30 1    
    31   12   31 1    
    32   12   32 1    
    33   13   33 1    
    34   13   34 1    
    35   14   35 1    
    36   14   36 1    
    37   15   37 1    
    38   15   38 1    
    39   16   39 1    
    40   16   40 1    
    41   17   41 1    
    42   17   42 1    
    43   17   43 1    
    44   19   44 1    
    45   19   45 1    
@<TRIPOS>SUBSTRUCTURE
     1 ****        2 TEMP              0 ****  ****    0 ROOT 
@<TRIPOS>NORMAL
@<TRIPOS>FF_PBC
FORCE_FIELD_SETUP_FEATURE Force Field Setup information
v1.0  0 0.000000 0.000000 0.000000 0.000000 0.000000 0.000000 NONE 0 0 0 0 1 0 0 0 0 0 0 0 0
