#	Name:			PISM00282
#	Creating user name:	baoopengkun
#	Creation time:		Sun Mar 31 18:25:30 2019

#	Modifying user name:	baoopengkun
#	Modification time:	Sun Mar 31 18:27:27 2019

@<TRIPOS>MOLECULE
PISM00282
   54    55     1     1     0
SMALL
GAST_HUCK


@<TRIPOS>ATOM
      1 C1         -6.1250    5.0322   -4.6485 C.ar      1 <1>        -0.0795 
      2 C2         -4.8371    5.5230   -4.8829 C.ar      1 <1>        -0.0432 
      3 C3         -3.8067    4.6532   -5.2635 C.ar      1 <1>         0.1176 
      4 C4         -4.0824    3.2842   -5.3663 C.ar      1 <1>         0.1167 
      5 C5         -5.3674    2.7969   -5.1146 C.ar      1 <1>        -0.0403 
      6 C6         -6.4097    3.6694   -4.7820 C.ar      1 <1>        -0.0595 
      7 O7         -2.5087    5.1119   -5.5443 O.3       1 <1>        -0.3259 
      8 C8         -2.1578    6.5044   -5.4961 C.3       1 <1>         0.0567 
      9 O9         -3.0728    2.3858   -5.7217 O.3       1 <1>        -0.3256 
     10 C10        -2.1343    2.1102   -4.6694 C.3       1 <1>         0.0568 
     11 C11        -7.8318    3.1971   -4.5549 C.2       1 <1>        -0.0763 
     12 C12        -8.3507    2.0961   -5.1160 C.2       1 <1>        -0.0657 
     13 C13        -9.7723    1.6472   -4.8731 C.3       1 <1>         0.0326 
     14 N14       -10.6225    1.9297   -6.0580 N.3       1 <1>        -0.2603 
     15 C15       -10.7942    3.3782   -6.3500 C.3       1 <1>         0.1046 
     16 C16       -11.3065    4.1612   -5.1687 C.2       1 <1>         0.2485 
     17 O17       -12.3573    3.8647   -4.6216 O.2       1 <1>        -0.3690 
     18 O18       -10.5375    5.1857   -4.7722 O.3       1 <1>        -0.2761 
     19 H1         -6.9123    5.7233   -4.3640 H         1 <1>         0.0472 
     20 C20       -10.3300    1.1151   -7.2644 C.3       1 <1>         0.0358 
     21 C21       -10.3567   -0.3854   -6.9469 C.ar      1 <1>        -0.0324 
     22 C22        -9.2542   -1.2068   -7.2115 C.ar      1 <1>        -0.0608 
     23 C23        -9.3081   -2.5719   -6.9146 C.ar      1 <1>        -0.0349 
     24 C24       -10.4619   -3.1212   -6.3505 C.ar      1 <1>         0.1248 
     25 C25       -11.5621   -2.3042   -6.0797 C.ar      1 <1>        -0.0349 
     26 C26       -11.5080   -0.9393   -6.3764 C.ar      1 <1>        -0.0608 
     27 F27       -10.5131   -4.4213   -6.0717 F         1 <1>        -0.1893 
     28 H2         -4.6657    6.5857   -4.7632 H         1 <1>         0.0508 
     29 H3         -5.5297    1.7278   -5.1735 H         1 <1>         0.0473 
     30 H4         -1.0974    6.5915   -5.7750 H         1 <1>         0.0573 
     31 H5         -2.2820    6.9100   -4.4803 H         1 <1>         0.0573 
     32 H6         -2.7541    7.0875   -6.2147 H         1 <1>         0.0573 
     33 H7         -1.3922    1.3935   -5.0503 H         1 <1>         0.0573 
     34 H8         -2.6466    1.6622   -3.8036 H         1 <1>         0.0573 
     35 H9         -1.6078    3.0221   -4.3482 H         1 <1>         0.0573 
     36 H10        -8.4565    3.8079   -3.9032 H         1 <1>         0.0412 
     37 H11        -7.7566    1.4815   -5.7901 H         1 <1>         0.0691 
     38 H12       -10.2024    2.1422   -3.9887 H         1 <1>         0.0619 
     39 H13        -9.7654    0.5723   -4.6371 H         1 <1>         0.0619 
     40 H14       -11.5446    3.5166   -7.1425 H         1 <1>         0.0688 
     41 H15        -9.8431    3.8107   -6.6987 H         1 <1>         0.0688 
     42 C42       -11.0503    5.8807   -3.6184 C.3       1 <1>         0.0740 
     43 H17        -9.3669    1.4160   -7.7050 H         1 <1>         0.0585 
     44 H18       -11.1105    1.2767   -8.0244 H         1 <1>         0.0585 
     45 H19        -8.3508   -0.7922   -7.6477 H         1 <1>         0.0548 
     46 H20        -8.4560   -3.2113   -7.1203 H         1 <1>         0.0587 
     47 H21       -12.4553   -2.7347   -5.6391 H         1 <1>         0.0587 
     48 H22       -12.3635   -0.3064   -6.1614 H         1 <1>         0.0548 
     49 C49       -10.0709    7.0265   -3.2714 C.3       1 <1>        -0.0371 
     50 H16       -11.1269    5.1961   -2.7560 H         1 <1>         0.0610 
     51 H23       -12.0462    6.3068   -3.8297 H         1 <1>         0.0610 
     52 H24        -9.9837    7.7149   -4.1261 H         1 <1>         0.0255 
     53 H25        -9.0754    6.6139   -3.0466 H         1 <1>         0.0255 
     54 H26       -10.4292    7.5892   -2.3950 H         1 <1>         0.0255 
@<TRIPOS>BOND
     1    2    1 ar   
     2    2    3 ar   
     3    3    4 ar   
     4    4    5 ar   
     5    5    6 ar   
     6    1    6 ar   
     7    3    7 1    
     8    7    8 1    
     9    4    9 1    
    10    9   10 1    
    11    6   11 1    
    12   11   12 2    
    13   12   13 1    
    14   13   14 1    
    15   14   15 1    
    16   15   16 1    
    17   16   17 2    
    18   16   18 1    
    19    1   19 1    
    20   14   20 1    
    21   20   21 1    
    22   21   22 ar   
    23   22   23 ar   
    24   23   24 ar   
    25   24   25 ar   
    26   25   26 ar   
    27   21   26 ar   
    28   24   27 1    
    29    2   28 1    
    30    5   29 1    
    31    8   30 1    
    32    8   31 1    
    33    8   32 1    
    34   10   33 1    
    35   10   34 1    
    36   10   35 1    
    37   11   36 1    
    38   12   37 1    
    39   13   38 1    
    40   13   39 1    
    41   15   40 1    
    42   15   41 1    
    43   18   42 1    
    44   20   43 1    
    45   20   44 1    
    46   22   45 1    
    47   23   46 1    
    48   25   47 1    
    49   26   48 1    
    50   42   49 1    
    51   42   50 1    
    52   42   51 1    
    53   49   52 1    
    54   49   53 1    
    55   49   54 1    
@<TRIPOS>SUBSTRUCTURE
     1 ****        2 TEMP              0 ****  ****    0 ROOT 
@<TRIPOS>NORMAL
@<TRIPOS>FF_PBC
FORCE_FIELD_SETUP_FEATURE Force Field Setup information
v1.0  0 0.000000 0.000000 0.000000 0.000000 0.000000 0.000000 NONE 0 0 0 0 1 0 0 0 0 0 0 0 0
