#	Name:			PISM00088
#	Creating user name:	baoopengkun
#	Creation time:		Thu Dec 27 16:41:44 2018

#	Modifying user name:	baoopengkun
#	Modification time:	Thu Dec 27 16:42:41 2018

@<TRIPOS>MOLECULE
PISM00088
   22    22     1     1     0
SMALL
GAST_HUCK


@<TRIPOS>ATOM
      1 Cl1         3.8954    6.0350  -17.0996 Cl        1 <1>        -0.0812 
      2 C2          2.7235    5.9271  -15.8012 C.ar      1 <1>         0.0413 
      3 C3          1.4506    5.3996  -16.0370 C.ar      1 <1>         0.0442 
      4 C4          0.5304    5.3042  -14.9893 C.ar      1 <1>        -0.0255 
      5 C5          0.8683    5.7344  -13.7014 C.ar      1 <1>         0.0624 
      6 C6          2.1331    6.2932  -13.4800 C.ar      1 <1>        -0.0391 
      7 C7          3.0628    6.3723  -14.5210 C.ar      1 <1>        -0.0577 
      8 Cl8         1.0002    4.8545  -17.6404 Cl        1 <1>        -0.0731 
      9 N9         -0.0362    5.6130  -12.6980 N.pl3     1 <1>        -0.2393 
     10 C10         0.2942    5.1556  -11.5184 C.2       1 <1>         0.2005 
     11 O11         1.4264    4.7968  -11.2403 O.2       1 <1>        -0.3794 
     12 C12        -0.7768    5.0556  -10.4559 C.3       1 <1>         0.0399 
     13 C13        -0.2458    4.4915   -9.1119 C.3       1 <1>        -0.0475 
     14 H1         -0.4527    4.8877  -15.1805 H         1 <1>         0.0534 
     15 H2          2.4005    6.6777  -12.5012 H         1 <1>         0.0531 
     16 H3          4.0507    6.7824  -14.3369 H         1 <1>         0.0593 
     17 H4         -1.0168    5.8690  -12.8862 H         1 <1>         0.2110 
     18 H5         -1.5795    4.3992  -10.8278 H         1 <1>         0.0508 
     19 H6         -1.1942    6.0605  -10.2843 H         1 <1>         0.0508 
     20 H7          0.1650    3.4801   -9.2589 H         1 <1>         0.0255 
     21 H8         -1.0598    4.4363   -8.3718 H         1 <1>         0.0255 
     22 H9          0.5489    5.1417   -8.7132 H         1 <1>         0.0255 
@<TRIPOS>BOND
     1    2    1 1    
     2    2    3 ar   
     3    3    4 ar   
     4    4    5 ar   
     5    5    6 ar   
     6    6    7 ar   
     7    2    7 ar   
     8    3    8 1    
     9    5    9 1    
    10    9   10 1    
    11   10   11 2    
    12   10   12 1    
    13   12   13 1    
    14    4   14 1    
    15    6   15 1    
    16    7   16 1    
    17    9   17 1    
    18   12   18 1    
    19   12   19 1    
    20   13   20 1    
    21   13   21 1    
    22   13   22 1    
@<TRIPOS>SUBSTRUCTURE
     1 ****        2 TEMP              0 ****  ****    0 ROOT 
@<TRIPOS>NORMAL
@<TRIPOS>FF_PBC
FORCE_FIELD_SETUP_FEATURE Force Field Setup information
v1.0  0 0.000000 0.000000 0.000000 0.000000 0.000000 0.000000 NONE 0 0 0 0 1 0 0 0 0 0 0 0 0
