#	Name:			PISM00529
#	Creating user name:	baoopengkun
#	Creation time:		Sun Dec 16 01:06:10 2018

#	Modifying user name:	baoopengkun
#	Modification time:	Sun Dec 16 01:08:58 2018

@<TRIPOS>MOLECULE
PISM00529
   53    55     1     1     0
SMALL
GAST_HUCK


@<TRIPOS>ATOM
      1 C1          4.4373   12.7385   34.5150 C.3       1 <1>         0.0693 
      2 O2          3.5607   13.8474   34.2828 O.3       1 <1>        -0.2779 
      3 N3          3.5417   14.7090   35.3943 N.2       1 <1>        -0.2037 
      4 C4          4.0553   15.8205   35.0422 C.2       1 <1>         0.0293 
      5 C5          4.5897   16.1751   33.6787 C.3       1 <1>        -0.0027 
      6 C6          5.3470   17.4925   33.9724 C.3       1 <1>        -0.0289 
      7 C7          4.5563   18.1334   35.1396 C.3       1 <1>         0.0075 
      8 C8          4.1552   16.9400   36.0390 C.3       1 <1>         0.0186 
      9 C9          5.2511   16.6432   37.0871 C.3       1 <1>        -0.0237 
     10 C10         5.4566   17.8935   37.9823 C.3       1 <1>        -0.0114 
     11 C11         5.7332   19.1018   37.1130 C.2       1 <1>        -0.0643 
     12 C12         5.3545   19.2152   35.8300 C.2       1 <1>         0.0201 
     13 C13         6.6016   17.6205   39.0045 C.3       1 <1>        -0.0430 
     14 C14         6.6743   18.6613   40.1560 C.3       1 <1>        -0.0630 
     15 C15         5.6839   20.4082   35.0163 C.2       1 <1>         0.1865 
     16 O16         4.9256   20.7089   34.1075 O.2       1 <1>        -0.3964 
     17 N17         6.7893   21.1539   35.2173 N.am      1 <1>        -0.2783 
     18 C18         6.9968   22.3258   34.3773 C.3       1 <1>         0.1458 
     19 C19         7.3262   22.0896   32.9185 C.2       1 <1>         0.2821 
     20 O20         8.3977   22.4393   32.4529 O.2       1 <1>        -0.3099 
     21 O21         6.4180   21.4941   32.1372 O.3       1 <1>        -0.2915 
     22 C22         7.4372   23.6578   35.0274 C.3       1 <1>        -0.0061 
     23 C23         7.6888   23.6644   36.5575 C.3       1 <1>        -0.0517 
     24 C24         7.5346   25.1046   37.1064 C.3       1 <1>        -0.0651 
     25 C25         5.9675   23.4591   34.5987 C.3       1 <1>        -0.0147 
     26 H1          4.0892   12.1633   35.3862 H         1 <1>         0.0585 
     27 H2          5.4622   13.0949   34.6980 H         1 <1>         0.0585 
     28 H3          4.4327   12.0892   33.6276 H         1 <1>         0.0585 
     29 H4          3.7352   16.3471   33.0057 H         1 <1>         0.0460 
     30 H5          5.2526   15.4082   33.2480 H         1 <1>         0.0460 
     31 H6          5.4102   18.1473   33.0875 H         1 <1>         0.0312 
     32 H7          6.3721   17.2633   34.3068 H         1 <1>         0.0312 
     33 H8          3.6323   18.5730   34.7242 H         1 <1>         0.0448 
     34 H9          3.1868   17.1158   36.5375 H         1 <1>         0.0516 
     35 H10         6.1994   16.3876   36.5886 H         1 <1>         0.0322 
     36 H11         4.9401   15.7761   37.6931 H         1 <1>         0.0322 
     37 H12         4.5249   18.0848   38.5406 H         1 <1>         0.0473 
     38 H13         6.2603   19.9348   37.5706 H         1 <1>         0.0641 
     39 H14         7.5676   17.5859   38.4741 H         1 <1>         0.0290 
     40 H15         6.4364   16.6353   39.4724 H         1 <1>         0.0290 
     41 H16         7.4461   18.3580   40.8815 H         1 <1>         0.0232 
     42 H17         5.7093   18.7177   40.6833 H         1 <1>         0.0232 
     43 H18         6.9343   19.6650   39.7912 H         1 <1>         0.0232 
     44 H19         7.5055   20.9105   35.8689 H         1 <1>         0.1820 
     45 H20         5.6246   21.2464   32.6070 H         1 <1>         0.2528 
     46 H21         8.0368   24.3184   34.3809 H         1 <1>         0.0311 
     47 H22         8.7141   23.3045   36.7403 H         1 <1>         0.0264 
     48 H23         6.9883   23.0044   37.0949 H         1 <1>         0.0264 
     49 H24         7.7203   25.1214   38.1921 H         1 <1>         0.0230 
     50 H25         6.5147   25.4746   36.9170 H         1 <1>         0.0230 
     51 H26         8.2526   25.7807   36.6166 H         1 <1>         0.0230 
     52 H27         5.6325   24.0100   33.7062 H         1 <1>         0.0278 
     53 H28         5.2154   23.2850   35.3831 H         1 <1>         0.0278 
@<TRIPOS>BOND
     1    2    1 1    
     2    2    3 1    
     3    3    4 2    
     4    4    5 1    
     5    5    6 1    
     6    6    7 1    
     7    7    8 1    
     8    4    8 1    
     9    8    9 1    
    10    9   10 1    
    11   10   11 1    
    12   11   12 2    
    13    7   12 1    
    14   10   13 1    
    15   13   14 1    
    16   12   15 1    
    17   15   16 2    
    18   15   17 am   
    19   17   18 1    
    20   18   19 1    
    21   19   20 2    
    22   19   21 1    
    23   18   22 1    
    24   22   23 1    
    25   23   24 1    
    26   22   25 1    
    27   18   25 1    
    28    1   26 1    
    29    1   27 1    
    30    1   28 1    
    31    5   29 1    
    32    5   30 1    
    33    6   31 1    
    34    6   32 1    
    35    7   33 1    
    36    8   34 1    
    37    9   35 1    
    38    9   36 1    
    39   10   37 1    
    40   11   38 1    
    41   13   39 1    
    42   13   40 1    
    43   14   41 1    
    44   14   42 1    
    45   14   43 1    
    46   17   44 1    
    47   21   45 1    
    48   22   46 1    
    49   23   47 1    
    50   23   48 1    
    51   24   49 1    
    52   24   50 1    
    53   24   51 1    
    54   25   52 1    
    55   25   53 1    
@<TRIPOS>SUBSTRUCTURE
     1 ****        2 TEMP              0 ****  ****    0 ROOT 
@<TRIPOS>NORMAL
@<TRIPOS>FF_PBC
FORCE_FIELD_SETUP_FEATURE Force Field Setup information
v1.0  0 0.000000 0.000000 0.000000 0.000000 0.000000 0.000000 NONE 0 0 0 0 1 0 0 0 0 0 0 0 0
