#	Name:			PISM00643
#	Creating user name:	baoopengkun
#	Creation time:		Wed Jan 09 15:49:15 2019

#	Modifying user name:	baoopengkun
#	Modification time:	Wed Jan 09 15:50:15 2019

@<TRIPOS>MOLECULE
PISM00643
   26    26     1     1     0
SMALL
GAST_HUCK


@<TRIPOS>ATOM
      1 Br1        -2.0327   -1.7238   -0.6139 Br        1 <1>        -0.0513 
      2 C2         -1.6170   -0.1858    0.3316 C.ar      1 <1>         0.0273 
      3 C3         -0.4445   -0.1155    1.0877 C.ar      1 <1>        -0.0434 
      4 C4         -0.1598    1.0533    1.7985 C.ar      1 <1>        -0.0082 
      5 C5         -1.0505    2.1296    1.7380 C.ar      1 <1>         0.1381 
      6 N6         -2.1669    2.0395    0.9854 N.ar      1 <1>        -0.2771 
      7 C7         -2.4719    0.9193    0.2981 C.ar      1 <1>         0.0074 
      8 N8         -0.7858    3.2698    2.4175 N.pl3     1 <1>        -0.2561 
      9 C9         -1.6320    3.8134    3.2614 C.2       1 <1>         0.0286 
     10 C10        -2.8189    3.2717    3.5800 C.2       1 <1>        -0.1162 
     11 C11        -1.2051    5.1207    3.9061 C.3       1 <1>         0.0050 
     12 C12        -0.1688    4.8507    5.0298 C.3       1 <1>        -0.0419 
     13 C13         0.2880    6.1688    5.7076 C.3       1 <1>        -0.0631 
     14 H1          0.2365   -0.9597    1.1229 H         1 <1>         0.0726 
     15 H2          0.7431    1.1262    2.3953 H         1 <1>         0.0633 
     16 H3         -3.3878    0.8843   -0.2815 H         1 <1>         0.0814 
     17 H4          0.1254    3.7195    2.2467 H         1 <1>         0.2187 
     18 H5         -3.4886    3.7596    4.2876 H         1 <1>        -0.0043 
     19 H6         -3.1896    2.3301    3.1804 H         1 <1>        -0.0043 
     20 H7         -2.0671    5.6487    4.3449 H         1 <1>         0.0481 
     21 H8         -0.7783    5.7889    3.1412 H         1 <1>         0.0481 
     22 H9          0.7141    4.3372    4.6149 H         1 <1>         0.0289 
     23 H10        -0.6235    4.1905    5.7877 H         1 <1>         0.0289 
     24 H11        -0.5720    6.6906    6.1557 H         1 <1>         0.0232 
     25 H12         0.7613    6.8355    4.9699 H         1 <1>         0.0232 
     26 H13         1.0184    5.9525    6.5034 H         1 <1>         0.0232 
@<TRIPOS>BOND
     1    2    1 1    
     2    2    3 ar   
     3    3    4 ar   
     4    4    5 ar   
     5    5    6 ar   
     6    6    7 ar   
     7    2    7 ar   
     8    5    8 1    
     9    8    9 1    
    10    9   10 2    
    11    9   11 1    
    12   11   12 1    
    13   12   13 1    
    14    3   14 1    
    15    4   15 1    
    16    7   16 1    
    17    8   17 1    
    18   10   18 1    
    19   10   19 1    
    20   11   20 1    
    21   11   21 1    
    22   12   22 1    
    23   12   23 1    
    24   13   24 1    
    25   13   25 1    
    26   13   26 1    
@<TRIPOS>SUBSTRUCTURE
     1 ****        2 TEMP              0 ****  ****    0 ROOT 
@<TRIPOS>NORMAL
@<TRIPOS>FF_PBC
FORCE_FIELD_SETUP_FEATURE Force Field Setup information
v1.0  0 0.000000 0.000000 0.000000 0.000000 0.000000 0.000000 NONE 0 0 0 0 1 0 0 0 0 0 0 0 0
