#	Name:			PISM00875.1
#	Creating user name:	baoopengkun
#	Creation time:		Sat Jan 12 21:11:02 2019

#	Modifying user name:	baoopengkun
#	Modification time:	Sat Jan 12 21:17:09 2019

@<TRIPOS>MOLECULE
PISM00875.1
   25    26     1     1     0
SMALL
GAST_HUCK


@<TRIPOS>ATOM
      1 C1         -3.4270   -3.8659   -0.1286 C.1       1 <1>         0.0923 
      2 C2         -5.0425   -2.7001    1.3098 C.ar      1 <1>        -0.0253 
      3 C3         -5.4997   -1.5340    1.9306 C.ar      1 <1>         0.0127 
      4 Br4        -7.0011   -1.5885    3.0142 Br        1 <1>        -0.0572 
      5 C5         -4.8229   -0.3270    1.7327 C.ar      1 <1>        -0.0522 
      6 C6         -3.6917   -0.2871    0.9123 C.ar      1 <1>        -0.0176 
      7 C7         -3.2314   -1.4519    0.2928 C.ar      1 <1>         0.1388 
      8 C8         -3.9057   -2.6604    0.4968 C.ar      1 <1>         0.1274 
      9 O9         -2.1055   -1.3937   -0.5294 O.3       1 <1>        -0.2582 
     10 C10        -0.8865   -1.8963    0.0404 C.3       1 <1>         0.2392 
     11 O11         0.1707   -1.6417   -0.9056 O.3       1 <1>        -0.2307 
     12 C12         0.9909   -0.7936   -0.2982 C.2       1 <1>         0.2495 
     13 O13         1.9891   -0.3561   -0.8441 O.2       1 <1>        -0.3691 
     14 C14         0.6217   -0.4304    1.0649 C.2       1 <1>         0.0292 
     15 C15        -0.5093   -1.1026    1.2700 C.2       1 <1>        -0.0013 
     16 C16         1.3453    0.4945    2.0051 C.3       1 <1>        -0.0323 
     17 N17        -3.0332   -4.8341   -0.6255 N.1       1 <1>        -0.3386 
     18 H1         -5.5705   -3.6362    1.4600 H         1 <1>         0.0718 
     19 H2         -5.1759    0.5789    2.2154 H         1 <1>         0.0686 
     20 H3         -3.1655    0.6485    0.7523 H         1 <1>         0.0575 
     21 H4         -0.9306   -2.9767    0.2538 H         1 <1>         0.1206 
     22 H5         -1.0855   -1.0798    2.1942 H         1 <1>         0.0706 
     23 H6          2.0153   -0.0916    2.6518 H         1 <1>         0.0347 
     24 H7          0.6270    1.0431    2.6320 H         1 <1>         0.0347 
     25 H8          1.9442    1.2188    1.4330 H         1 <1>         0.0347 
@<TRIPOS>BOND
     1    8    1 1    
     2    2    3 ar   
     3    3    4 1    
     4    3    5 ar   
     5    5    6 ar   
     6    6    7 ar   
     7    7    8 ar   
     8    2    8 ar   
     9    7    9 1    
    10    9   10 1    
    11   10   11 1    
    12   11   12 1    
    13   12   13 2    
    14   12   14 1    
    15   14   15 2    
    16   10   15 1    
    17   14   16 1    
    18    1   17 3    
    19    2   18 1    
    20    5   19 1    
    21    6   20 1    
    22   10   21 1    
    23   15   22 1    
    24   16   23 1    
    25   16   24 1    
    26   16   25 1    
@<TRIPOS>SUBSTRUCTURE
     1 ****        2 TEMP              0 ****  ****    0 ROOT 
@<TRIPOS>NORMAL
@<TRIPOS>FF_PBC
FORCE_FIELD_SETUP_FEATURE Force Field Setup information
v1.0  0 0.000000 0.000000 0.000000 0.000000 0.000000 0.000000 NONE 0 0 0 0 1 0 0 0 0 0 0 0 0
