#	Name:			PISM01017
#	Creating user name:	malab
#	Creation time:		Mon Jul 01 22:14:48 2019

#	Modifying user name:	malab
#	Modification time:	Mon Jul 01 22:29:55 2019

@<TRIPOS>MOLECULE
PISM01017
   33    35     1     1     0
SMALL
GAST_HUCK


@<TRIPOS>ATOM
      1 N1          6.0116   17.9076   29.4325 N.ar      1 <1>        -0.2853 
      2 C2          5.2621   17.9659   27.1758 C.ar      1 <1>        -0.0160 
      3 C3          4.9495   19.3207   27.3165 C.ar      1 <1>        -0.0542 
      4 C4          5.1773   19.9530   28.5411 C.ar      1 <1>        -0.0480 
      5 C5          5.7223   19.2150   29.5950 C.ar      1 <1>        -0.0042 
      6 C6          5.7680   17.2596   28.2739 C.ar      1 <1>         0.1137 
      7 N7          6.0381   15.9305   28.2237 N.pl3     1 <1>        -0.2903 
      8 C8          7.0651   15.3842   29.1059 C.3       1 <1>         0.0501 
      9 C9          7.6017   14.0356   28.5641 C.3       1 <1>         0.0566 
     10 N10         6.4730   13.1130   28.4220 N.am      1 <1>        -0.2391 
     11 C11         5.1762   13.6120   27.9647 C.3       1 <1>         0.0566 
     12 C12         5.3032   15.0276   27.3395 C.3       1 <1>         0.0501 
     13 C13         6.6533   11.7942   28.7216 C.2       1 <1>         0.3534 
     14 O14         7.7829   11.4025   28.9724 O.2       1 <1>        -0.3616 
     15 N15         5.6763   10.9223   28.7617 N.pl3     1 <1>        -0.0704 
     16 N16         4.3505   11.1015   28.5659 N.2       1 <1>        -0.0739 
     17 N17         3.6607    9.9576   28.7037 N.2       1 <1>        -0.2236 
     18 C18         4.6915    9.0033   29.0211 C.2       1 <1>         0.0266 
     19 C19         5.8565    9.6564   29.0373 C.2       1 <1>         0.0968 
     20 H1          5.1171   17.4828   26.2164 H         1 <1>         0.0610 
     21 H2          4.5352   19.8779   26.4818 H         1 <1>         0.0699 
     22 H3          4.9359   21.0031   28.6725 H         1 <1>         0.0597 
     23 H4          5.9167   19.6878   30.5519 H         1 <1>         0.0781 
     24 H5          6.6192   15.2303   30.1018 H         1 <1>         0.0539 
     25 H6          7.9046   16.0937   29.2022 H         1 <1>         0.0539 
     26 H7          8.3717   13.6806   29.2697 H         1 <1>         0.0542 
     27 H8          8.0758   14.1873   27.5815 H         1 <1>         0.0542 
     28 H9          4.4852   13.6604   28.8222 H         1 <1>         0.0542 
     29 H10         4.7513   12.9667   27.1783 H         1 <1>         0.0542 
     30 H11         4.2850   15.3997   27.1345 H         1 <1>         0.0539 
     31 H12         5.8554   14.9646   26.3877 H         1 <1>         0.0539 
     32 H13         4.5364    7.9420   29.2122 H         1 <1>         0.0560 
     33 H14         6.8048    9.1631   29.2553 H         1 <1>         0.1050 
@<TRIPOS>BOND
     1    6    1 ar   
     2    6    2 ar   
     3    2    3 ar   
     4    3    4 ar   
     5    4    5 ar   
     6    1    5 ar   
     7    6    7 1    
     8    7    8 1    
     9    8    9 1    
    10    9   10 1    
    11   11   10 1    
    12   12   11 1    
    13    7   12 1    
    14   10   13 am   
    15   13   14 2    
    16   13   15 1    
    17   15   16 1    
    18   16   17 2    
    19   18   17 1    
    20   19   18 2    
    21   15   19 1    
    22    2   20 1    
    23    3   21 1    
    24    4   22 1    
    25    5   23 1    
    26    8   24 1    
    27    8   25 1    
    28    9   26 1    
    29    9   27 1    
    30   11   28 1    
    31   11   29 1    
    32   12   30 1    
    33   12   31 1    
    34   18   32 1    
    35   19   33 1    
@<TRIPOS>SUBSTRUCTURE
     1 ****        6 TEMP              0 ****  ****    0 ROOT 
@<TRIPOS>NORMAL
@<TRIPOS>FF_PBC
FORCE_FIELD_SETUP_FEATURE Force Field Setup information
v1.0  0 0.000000 0.000000 0.000000 0.000000 0.000000 0.000000 NONE 0 0 0 0 1 0 0 0 0 0 0 0 0
