#	Name:			PISM00278
#	Creating user name:	baoopengkun
#	Creation time:		Sun Mar 31 17:37:08 2019

#	Modifying user name:	baoopengkun
#	Modification time:	Sun Mar 31 18:23:56 2019

@<TRIPOS>MOLECULE
PISM00278
   57    58     1     1     0
SMALL
GAST_HUCK


@<TRIPOS>ATOM
      1 C1         -4.5514   -0.2713   -4.5980 C.ar      1 <1>        -0.0795 
      2 C2         -3.1576   -0.1658   -4.6423 C.ar      1 <1>        -0.0432 
      3 C3         -2.4254   -0.8610   -5.6138 C.ar      1 <1>         0.1176 
      4 C4         -3.1113   -1.6850   -6.5139 C.ar      1 <1>         0.1167 
      5 C5         -4.5027   -1.7960   -6.4588 C.ar      1 <1>        -0.0403 
      6 C6         -5.2401   -1.0676   -5.5187 C.ar      1 <1>        -0.0595 
      7 O7         -1.0272   -0.7582   -5.7114 O.3       1 <1>        -0.3259 
      8 C8         -0.2622    0.1126   -4.8628 C.3       1 <1>         0.0567 
      9 O9         -2.4102   -2.4104   -7.4806 O.3       1 <1>        -0.3256 
     10 C10        -1.7414   -3.5734   -6.9668 C.3       1 <1>         0.0568 
     11 C11        -6.7534   -1.1124   -5.4570 C.2       1 <1>        -0.0763 
     12 C12        -7.5357   -1.3737   -6.5141 C.2       1 <1>        -0.0658 
     13 C13        -9.0435   -1.4083   -6.4237 C.3       1 <1>         0.0302 
     14 N14        -9.6396   -0.1777   -7.0112 N.3       1 <1>        -0.2795 
     15 C15        -9.3472    1.0806   -6.2685 C.3       1 <1>         0.0056 
     16 C16       -10.7345    2.6684   -2.9622 C.2       1 <1>         0.2335 
     17 O17       -11.6488    1.8873   -2.7605 O.2       1 <1>        -0.3704 
     18 O18       -10.5322    3.6441   -2.0559 O.3       1 <1>        -0.2802 
     19 C19        -9.4103    4.5252   -2.2599 C.3       1 <1>         0.0658 
     20 C20        -9.4562   -0.0478   -8.4811 C.3       1 <1>         0.0333 
     21 C21        -9.8161   -1.3354   -9.2346 C.ar      1 <1>        -0.0326 
     22 C22        -8.8715   -2.0112  -10.0165 C.ar      1 <1>        -0.0608 
     23 C23        -9.2187   -3.1986  -10.6681 C.ar      1 <1>        -0.0349 
     24 C24       -10.5130   -3.7104  -10.5494 C.ar      1 <1>         0.1248 
     25 C25       -11.4633   -3.0305   -9.7838 C.ar      1 <1>        -0.0349 
     26 C26       -11.1149   -1.8455   -9.1291 C.ar      1 <1>        -0.0608 
     27 F27       -10.8407   -4.8437  -11.1649 F         1 <1>        -0.1893 
     28 C28       -10.2141    1.2187   -4.9865 C.3       1 <1>        -0.0215 
     29 C29        -9.8842    2.5235   -4.2077 C.3       1 <1>         0.0499 
     30 H1         -5.1013    0.2782   -3.8400 H         1 <1>         0.0472 
     31 H2         -2.6697    0.4644   -3.9089 H         1 <1>         0.0508 
     32 H3         -4.9904   -2.4673   -7.1547 H         1 <1>         0.0473 
     33 H4         -0.3490   -0.1872   -3.8073 H         1 <1>         0.0573 
     34 H5         -0.5749    1.1606   -4.9889 H         1 <1>         0.0573 
     35 H6          0.7934    0.0278   -5.1596 H         1 <1>         0.0573 
     36 H7         -2.4681   -4.2712   -6.5223 H         1 <1>         0.0573 
     37 H8         -0.9867   -3.3041   -6.2119 H         1 <1>         0.0573 
     38 H9         -1.2358   -4.0757   -7.8044 H         1 <1>         0.0573 
     39 H10        -7.2156   -0.9044   -4.4919 H         1 <1>         0.0412 
     40 H11        -7.1033   -1.5582   -7.4956 H         1 <1>         0.0691 
     41 H12        -9.3690   -1.5284   -5.3817 H         1 <1>         0.0617 
     42 H13        -9.4024   -2.3124   -6.9380 H         1 <1>         0.0617 
     43 H14        -9.5731    1.9592   -6.8952 H         1 <1>         0.0432 
     44 H15        -8.2775    1.1349   -6.0125 H         1 <1>         0.0432 
     45 H16        -9.4449    5.2675   -1.4489 H         1 <1>         0.0577 
     46 H17        -9.4651    5.0711   -3.2139 H         1 <1>         0.0577 
     47 H18        -8.4495    3.9943   -2.1780 H         1 <1>         0.0577 
     48 H19        -8.4245    0.2675   -8.7023 H         1 <1>         0.0584 
     49 H20       -10.1349    0.7269   -8.8713 H         1 <1>         0.0584 
     50 H21        -7.8642   -1.6221  -10.1236 H         1 <1>         0.0548 
     51 H22        -8.4866   -3.7283  -11.2689 H         1 <1>         0.0587 
     52 H23       -12.4699   -3.4270   -9.7006 H         1 <1>         0.0587 
     53 H24       -11.8552   -1.3204   -8.5335 H         1 <1>         0.0548 
     54 H25       -10.0373    0.3770   -4.3014 H         1 <1>         0.0303 
     55 H26       -11.2776    1.2076   -5.2773 H         1 <1>         0.0303 
     56 H27       -10.0705    3.3877   -4.8630 H         1 <1>         0.0519 
     57 H28        -8.8175    2.4892   -3.9425 H         1 <1>         0.0519 
@<TRIPOS>BOND
     1    1    2 ar   
     2    2    3 ar   
     3    4    3 ar   
     4    5    4 ar   
     5    6    5 ar   
     6    6    1 ar   
     7    3    7 1    
     8    7    8 1    
     9    4    9 1    
    10    9   10 1    
    11   11    6 1    
    12   12   11 2    
    13   13   12 1    
    14   14   13 1    
    15   15   14 1    
    16   28   15 1    
    17   16   17 2    
    18   16   18 1    
    19   18   19 1    
    20   14   20 1    
    21   20   21 1    
    22   21   22 ar   
    23   22   23 ar   
    24   23   24 ar   
    25   25   24 ar   
    26   26   25 ar   
    27   21   26 ar   
    28   24   27 1    
    29   29   28 1    
    30   16   29 1    
    31    1   30 1    
    32    2   31 1    
    33    5   32 1    
    34    8   33 1    
    35    8   34 1    
    36    8   35 1    
    37   10   36 1    
    38   10   37 1    
    39   10   38 1    
    40   11   39 1    
    41   12   40 1    
    42   13   41 1    
    43   13   42 1    
    44   15   43 1    
    45   15   44 1    
    46   19   45 1    
    47   19   46 1    
    48   19   47 1    
    49   20   48 1    
    50   20   49 1    
    51   22   50 1    
    52   23   51 1    
    53   25   52 1    
    54   26   53 1    
    55   28   54 1    
    56   28   55 1    
    57   29   56 1    
    58   29   57 1    
@<TRIPOS>SUBSTRUCTURE
     1 ****       16 TEMP              0 ****  ****    0 ROOT 
@<TRIPOS>NORMAL
@<TRIPOS>FF_PBC
FORCE_FIELD_SETUP_FEATURE Force Field Setup information
v1.0  0 0.000000 0.000000 0.000000 0.000000 0.000000 0.000000 NONE 0 0 0 0 1 0 0 0 0 0 0 0 0
