#	Name:			PISM00003
#	Creating user name:	baoopengkun
#	Creation time:		Thu Nov 15 10:34:49 2018

#	Modifying user name:	baoopengkun
#	Modification time:	Thu Nov 15 10:41:13 2018

@<TRIPOS>MOLECULE
PISM00003
   47    48     1     2     0
SMALL
GAST_HUCK


@<TRIPOS>ATOM
      1 C1          3.9002    4.8813  -10.1914 C.ar      1 <1>        -0.0603 
      2 C2          4.6544    5.6223  -11.1060 C.ar      1 <1>        -0.0686 
      3 C3          4.0966    6.7432  -11.7268 C.ar      1 <1>        -0.0687 
      4 C4          2.7843    7.1214  -11.4302 C.ar      1 <1>        -0.0686 
      5 C5          2.0319    6.3791  -10.5151 C.ar      1 <1>        -0.0603 
      6 C6          2.5838    5.2526   -9.8943 C.ar      1 <1>        -0.0429 
      7 C7          1.7560    4.4329   -8.8939 C.3       1 <1>        -0.0168 
      8 C8          2.0194    4.9615   -7.4602 C.3       1 <1>        -0.0173 
      9 C9          1.1093    4.3229   -6.3689 C.3       1 <1>         0.0521 
     10 C10         1.2875    2.7798   -6.2250 C.3       1 <1>        -0.0298 
     11 C11         0.1913    1.9648   -6.9655 C.3       1 <1>        -0.0629 
     12 N12         1.3896    4.9498   -5.0765 N.am      1 <1>        -0.2734 
     13 C13         0.4246    4.8779   -4.0411 C.ar      1 <1>         0.2112 
     14 N14        -0.7312    4.2223   -4.2561 N.ar      1 <1>        -0.2287 
     15 C15        -1.6393    4.1112   -3.2669 C.ar      1 <1>         0.1104 
     16 N16        -1.3962    4.6947   -2.0757 N.ar      1 <1>        -0.2289 
     17 C17        -0.2445    5.3646   -1.8833 C.ar      1 <1>         0.2084 
     18 N18         0.6798    5.4616   -2.8561 N.ar      1 <1>        -0.2006 
     19 N19        -0.0035    5.9775   -0.6324 N.am      1 <1>        -0.2906 
     20 C20        -2.9375    3.3268   -3.4918 C.3       1 <1>         0.1344 
     21 C21        -2.9665    2.1011   -2.5457 C.3       1 <1>        -0.0408 
     22 F22        -2.9978    2.8719   -4.7765 F         1 <1>        -0.2649 
     23 C23        -4.1538    4.2549   -3.2518 C.3       1 <1>        -0.0408 
     24 H1          4.3444    4.0152   -9.7111 H         1 <1>         0.0557 
     25 H2          5.6741    5.3273  -11.3343 H         1 <1>         0.0599 
     26 H3          4.6814    7.3191  -12.4377 H         1 <1>         0.0559 
     27 H4          2.3494    7.9926  -11.9106 H         1 <1>         0.0599 
     28 H5          1.0155    6.6848  -10.2882 H         1 <1>         0.0557 
     29 H6          2.0462    3.3747   -8.9783 H         1 <1>         0.0427 
     30 H7          0.6854    4.5148   -9.1401 H         1 <1>         0.0427 
     31 H8          1.8393    6.0497   -7.4541 H         1 <1>         0.0312 
     32 H9          3.0792    4.7941   -7.2077 H         1 <1>         0.0312 
     33 H10         0.0637    4.5520   -6.6393 H         1 <1>         0.0593 
     34 H11         1.2137    2.5019   -5.1604 H         1 <1>         0.0288 
     35 H12         2.2892    2.4758   -6.5680 H         1 <1>         0.0288 
     36 H13         0.3722    0.8861   -6.8340 H         1 <1>         0.0231 
     37 H14         0.1761    2.1822   -8.0422 H         1 <1>         0.0231 
     38 H15        -0.8020    2.1997   -6.5503 H         1 <1>         0.0231 
     39 H16         2.2777    5.3739   -4.8975 H         1 <1>         0.2048 
     40 H17        -0.6875    5.9102    0.0923 H         1 <1>         0.2009 
     41 H18         0.8480    6.4757   -0.4766 H         1 <1>         0.2009 
     42 H19        -3.8824    1.5142   -2.7133 H         1 <1>         0.0201 
     43 H20        -2.9356    2.4220   -1.4932 H         1 <1>         0.0201 
     44 H21        -2.0954    1.4590   -2.7472 H         1 <1>         0.0201 
     45 H22        -4.1060    5.1114   -3.9417 H         1 <1>         0.0201 
     46 H23        -4.1583    4.6315   -2.2175 H         1 <1>         0.0201 
     47 H24        -5.0904    3.7069   -3.4359 H         1 <1>         0.0201 
@<TRIPOS>BOND
     1    2    1 ar   
     2    2    3 ar   
     3    3    4 ar   
     4    4    5 ar   
     5    6    5 ar   
     6    1    6 ar   
     7    6    7 1    
     8    7    8 1    
     9    8    9 1    
    10    9   10 1    
    11   10   11 1    
    12    9   12 1    
    13   12   13 1    
    14   13   14 ar   
    15   14   15 ar   
    16   15   16 ar   
    17   17   16 ar   
    18   18   17 ar   
    19   13   18 ar   
    20   17   19 1    
    21   15   20 1    
    22   20   21 1    
    23   20   22 1    
    24   20   23 1    
    25    1   24 1    
    26    2   25 1    
    27    3   26 1    
    28    4   27 1    
    29    5   28 1    
    30    7   29 1    
    31    7   30 1    
    32    8   31 1    
    33    8   32 1    
    34    9   33 1    
    35   10   34 1    
    36   10   35 1    
    37   11   36 1    
    38   11   37 1    
    39   11   38 1    
    40   12   39 1    
    41   19   40 1    
    42   19   41 1    
    43   21   42 1    
    44   21   43 1    
    45   21   44 1    
    46   23   45 1    
    47   23   46 1    
    48   23   47 1    
@<TRIPOS>SUBSTRUCTURE
     1 ****        2 TEMP              0 ****  ****    0 ROOT 
@<TRIPOS>NORMAL
@<TRIPOS>FF_PBC
FORCE_FIELD_SETUP_FEATURE Force Field Setup information
v1.0  0 0.000000 0.000000 0.000000 0.000000 0.000000 0.000000 NONE 0 0 0 0 1 0 0 0 0 0 0 0 0
@<TRIPOS>RENDERING_ATTRS
BALL_AND_STICK  
*
