#	Name:			PISM00079
#	Creating user name:	baoopengkun
#	Creation time:		Thu Dec 27 12:19:37 2018

#	Modifying user name:	baoopengkun
#	Modification time:	Thu Dec 27 12:21:15 2018

@<TRIPOS>MOLECULE
PISM00079
   38    41     1     1     0
SMALL
GAST_HUCK


@<TRIPOS>ATOM
      1 C1          2.7118    7.7442  -21.2067 C.ar      1 <1>        -0.0684 
      2 C2          2.2820    8.6157  -20.2022 C.ar      1 <1>        -0.0591 
      3 C3          0.9361    8.9936  -20.0985 C.ar      1 <1>        -0.0211 
      4 C4          0.0195    8.4647  -21.0213 C.ar      1 <1>         0.0418 
      5 C5          0.4496    7.5939  -22.0270 C.ar      1 <1>        -0.0546 
      6 C6          1.7943    7.2313  -22.1253 C.ar      1 <1>        -0.0682 
      7 Cl7        -1.6890    8.8610  -20.9618 Cl        1 <1>        -0.0772 
      8 C8          0.5054    9.9700  -18.9826 C.3       1 <1>         0.0224 
      9 C9          1.2440   11.3296  -19.0986 C.3       1 <1>         0.0361 
     10 C10         0.7457   12.2594  -18.0263 C.2       1 <1>         0.1343 
     11 O11         0.6999   13.4604  -18.2356 O.2       1 <1>        -0.3838 
     12 C12         0.3088   11.6982  -16.6922 C.ar      1 <1>         0.0717 
     13 C13         0.3018   10.3171  -16.4782 C.ar      1 <1>         0.0527 
     14 C14         0.7344    9.3477  -17.5794 C.3       1 <1>         0.0177 
     15 C15        -0.1000   12.5299  -15.6469 C.ar      1 <1>         0.0255 
     16 N16        -0.4822   11.9898  -14.4719 N.ar      1 <1>        -0.2561 
     17 C17        -0.4778   10.6538  -14.2908 C.ar      1 <1>         0.1879 
     18 N18        -0.0951    9.8291  -15.2863 N.ar      1 <1>        -0.2481 
     19 N19        -0.8601   10.1435  -13.1012 N.pl3     1 <1>        -0.2849 
     20 C20        -0.8379    8.7079  -12.8749 C.3       1 <1>         0.0430 
     21 C21         0.5691    8.0737  -12.9129 C.3       1 <1>        -0.0272 
     22 C22        -0.1649    8.2400  -11.5670 C.3       1 <1>        -0.0272 
     23 H1          3.7591    7.4648  -21.2742 H         1 <1>         0.0601 
     24 H2          3.0196    8.9920  -19.5026 H         1 <1>         0.0557 
     25 H3         -0.2679    7.1959  -22.7376 H         1 <1>         0.0605 
     26 H4          2.1237    6.5559  -22.9092 H         1 <1>         0.0559 
     27 H5         -0.5701   10.1960  -19.0541 H         1 <1>         0.0517 
     28 H6          1.0542   11.7709  -20.0903 H         1 <1>         0.0510 
     29 H7          2.3300   11.2233  -18.9661 H         1 <1>         0.0510 
     30 H8          0.1514    8.4178  -17.4842 H         1 <1>         0.0520 
     31 H9          1.7946    9.1126  -17.4061 H         1 <1>         0.0520 
     32 H10        -0.1127   13.6073  -15.7723 H         1 <1>         0.0930 
     33 H11        -1.1532   10.7805  -12.3471 H         1 <1>         0.1883 
     34 H12        -1.6530    8.0777  -13.2657 H         1 <1>         0.0563 
     35 H13         1.4120    8.7544  -13.1086 H         1 <1>         0.0289 
     36 H14         0.6402    7.0552  -13.3250 H         1 <1>         0.0289 
     37 H15         0.2114    9.0239  -10.8919 H         1 <1>         0.0289 
     38 H16        -0.5654    7.3257  -11.1023 H         1 <1>         0.0289 
@<TRIPOS>BOND
     1    2    1 ar   
     2    2    3 ar   
     3    3    4 ar   
     4    4    5 ar   
     5    5    6 ar   
     6    1    6 ar   
     7    4    7 1    
     8    3    8 1    
     9    8    9 1    
    10    9   10 1    
    11   10   11 2    
    12   10   12 1    
    13   12   13 ar   
    14   13   14 1    
    15    8   14 1    
    16   12   15 ar   
    17   15   16 ar   
    18   16   17 ar   
    19   17   18 ar   
    20   13   18 ar   
    21   17   19 1    
    22   19   20 1    
    23   20   21 1    
    24   21   22 1    
    25   20   22 1    
    26    1   23 1    
    27    2   24 1    
    28    5   25 1    
    29    6   26 1    
    30    8   27 1    
    31    9   28 1    
    32    9   29 1    
    33   14   30 1    
    34   14   31 1    
    35   15   32 1    
    36   19   33 1    
    37   20   34 1    
    38   21   35 1    
    39   21   36 1    
    40   22   37 1    
    41   22   38 1    
@<TRIPOS>SUBSTRUCTURE
     1 ****        2 TEMP              0 ****  ****    0 ROOT 
@<TRIPOS>NORMAL
@<TRIPOS>FF_PBC
FORCE_FIELD_SETUP_FEATURE Force Field Setup information
v1.0  0 0.000000 0.000000 0.000000 0.000000 0.000000 0.000000 NONE 0 0 0 0 1 0 0 0 0 0 0 0 0
