#	Name:			PISM00083
#	Creating user name:	baoopengkun
#	Creation time:		Thu Dec 27 16:20:11 2018

#	Modifying user name:	baoopengkun
#	Modification time:	Thu Dec 27 16:21:50 2018

@<TRIPOS>MOLECULE
PISM00083
   52    54     1     1     0
SMALL
GAST_HUCK


@<TRIPOS>ATOM
      1 C1          8.8775    4.7139  -11.3379 C.3       1 <1>         0.0487 
      2 C2          9.0925    3.7982  -10.1005 C.3       1 <1>        -0.0449 
      3 C3          9.4112    4.0140  -12.6176 C.3       1 <1>        -0.0449 
      4 C4          7.4158    5.0755  -11.5196 C.2       1 <1>         0.2045 
      5 O5          6.5839    4.4657  -10.8680 O.2       1 <1>        -0.3786 
      6 N6          7.0929    6.0305  -12.3533 N.pl3     1 <1>        -0.2364 
      7 C7          5.8038    6.3948  -12.5668 C.ar      1 <1>         0.0668 
      8 C8          4.7946    5.4430  -12.7535 C.ar      1 <1>        -0.0338 
      9 C9          3.4662    5.8412  -12.9323 C.ar      1 <1>        -0.0520 
     10 C10         3.1353    7.1992  -13.0186 C.ar      1 <1>         0.0376 
     11 C11         4.1476    8.1493  -12.8419 C.ar      1 <1>        -0.0520 
     12 C12         5.4683    7.7516  -12.6148 C.ar      1 <1>        -0.0338 
     13 C13         1.7204    7.6725  -13.2906 C.2       1 <1>         0.1997 
     14 O14         1.4099    8.7769  -12.8778 O.2       1 <1>        -0.3900 
     15 N15         0.8392    6.9120  -13.9804 N.am      1 <1>        -0.2630 
     16 C16        -0.5358    7.3731  -14.1835 C.3       1 <1>         0.1080 
     17 C17        -1.1861    7.6401  -12.8140 C.ar      1 <1>        -0.0068 
     18 C18        -1.3749    8.9393  -12.3257 C.ar      1 <1>        -0.0561 
     19 C19        -2.0150    9.1507  -11.1010 C.ar      1 <1>        -0.0681 
     20 C20        -2.4499    8.0623  -10.3405 C.ar      1 <1>        -0.0685 
     21 C21        -2.2349    6.7620  -10.8047 C.ar      1 <1>        -0.0681 
     22 C22        -1.6003    6.5546  -12.0328 C.ar      1 <1>        -0.0561 
     23 C23        -0.6680    8.5434  -15.1738 C.ar      1 <1>        -0.0068 
     24 C24         0.4342    9.0633  -15.8638 C.ar      1 <1>        -0.0561 
     25 C25         0.2787   10.1464  -16.7342 C.ar      1 <1>        -0.0681 
     26 C26        -0.9846   10.7074  -16.9385 C.ar      1 <1>        -0.0685 
     27 C27        -2.0929   10.1803  -16.2709 C.ar      1 <1>        -0.0681 
     28 C28        -1.9331    9.1007  -15.3977 C.ar      1 <1>        -0.0561 
     29 H1          9.4457    5.6445  -11.1691 H         1 <1>         0.0541 
     30 H2         10.1633    3.5835   -9.9586 H         1 <1>         0.0257 
     31 H3          8.5581    2.8440  -10.2281 H         1 <1>         0.0257 
     32 H4          8.7142    4.2935   -9.1923 H         1 <1>         0.0257 
     33 H5          9.3159    4.6672  -13.4981 H         1 <1>         0.0257 
     34 H6          8.8412    3.0910  -12.8062 H         1 <1>         0.0257 
     35 H7         10.4742    3.7526  -12.4977 H         1 <1>         0.0257 
     36 H8          7.8348    6.5462  -12.8478 H         1 <1>         0.2126 
     37 H9          5.0356    4.3850  -12.7673 H         1 <1>         0.0543 
     38 H10         2.6989    5.0780  -12.9937 H         1 <1>         0.0639 
     39 H11         3.9104    9.2081  -12.8828 H         1 <1>         0.0639 
     40 H12         6.2374    8.5041  -12.4721 H         1 <1>         0.0543 
     41 H13         1.1111    6.0411  -14.3875 H         1 <1>         0.1897 
     42 H14        -1.1275    6.5702  -14.6560 H         1 <1>         0.0879 
     43 H15        -1.0228    9.7973  -12.8888 H         1 <1>         0.0561 
     44 H16        -2.1727   10.1623  -10.7393 H         1 <1>         0.0600 
     45 H17        -2.9517    8.2264   -9.3918 H         1 <1>         0.0561 
     46 H18        -2.5608    5.9134  -10.2109 H         1 <1>         0.0600 
     47 H19        -1.4287    5.5400  -12.3780 H         1 <1>         0.0561 
     48 H20         1.4213    8.6341  -15.7366 H         1 <1>         0.0561 
     49 H21         1.1413   10.5531  -17.2534 H         1 <1>         0.0600 
     50 H22        -1.1047   11.5491  -17.6139 H         1 <1>         0.0561 
     51 H23        -3.0773   10.6096  -16.4303 H         1 <1>         0.0600 
     52 H24        -2.8026    8.6949  -14.8899 H         1 <1>         0.0561 
@<TRIPOS>BOND
     1    2    1 1    
     2    1    3 1    
     3    1    4 1    
     4    4    5 2    
     5    4    6 1    
     6    6    7 1    
     7    7    8 ar   
     8    8    9 ar   
     9    9   10 ar   
    10   10   11 ar   
    11   11   12 ar   
    12    7   12 ar   
    13   10   13 1    
    14   13   14 2    
    15   13   15 am   
    16   15   16 1    
    17   16   17 1    
    18   17   18 ar   
    19   18   19 ar   
    20   19   20 ar   
    21   20   21 ar   
    22   21   22 ar   
    23   17   22 ar   
    24   16   23 1    
    25   23   24 ar   
    26   24   25 ar   
    27   25   26 ar   
    28   26   27 ar   
    29   27   28 ar   
    30   23   28 ar   
    31    1   29 1    
    32    2   30 1    
    33    2   31 1    
    34    2   32 1    
    35    3   33 1    
    36    3   34 1    
    37    3   35 1    
    38    6   36 1    
    39    8   37 1    
    40    9   38 1    
    41   11   39 1    
    42   12   40 1    
    43   15   41 1    
    44   16   42 1    
    45   18   43 1    
    46   19   44 1    
    47   20   45 1    
    48   21   46 1    
    49   22   47 1    
    50   24   48 1    
    51   25   49 1    
    52   26   50 1    
    53   27   51 1    
    54   28   52 1    
@<TRIPOS>SUBSTRUCTURE
     1 ****        2 TEMP              0 ****  ****    0 ROOT 
@<TRIPOS>NORMAL
@<TRIPOS>FF_PBC
FORCE_FIELD_SETUP_FEATURE Force Field Setup information
v1.0  0 0.000000 0.000000 0.000000 0.000000 0.000000 0.000000 NONE 0 0 0 0 1 0 0 0 0 0 0 0 0
