#	Name:			PISM00679
#	Creating user name:	baoopengkun
#	Creation time:		Sat Jan 12 23:41:12 2019

#	Modifying user name:	baoopengkun
#	Modification time:	Sat Jan 12 23:42:17 2019

@<TRIPOS>MOLECULE
PISM00679
   44    45     1     1     0
SMALL
GAST_HUCK


@<TRIPOS>ATOM
      1 C1          5.5291   -8.8875   -1.8489 C.3       1 <1>        -0.0516 
      2 C2          5.5693   -9.0668   -0.3093 C.3       1 <1>        -0.0528 
      3 C3          4.2716   -9.7447    0.2040 C.3       1 <1>        -0.0516 
      4 C4          4.0561  -11.1056   -0.5086 C.3       1 <1>        -0.0462 
      5 C5          3.9642  -10.8898   -2.0452 C.3       1 <1>        -0.0302 
      6 C6          5.2955  -10.2570   -2.5422 C.3       1 <1>        -0.0462 
      7 C7          3.6612  -12.1924   -2.7493 C.2       1 <1>        -0.0643 
      8 C8          2.4775  -12.8025   -2.9662 C.2       1 <1>         0.1102 
      9 N9          1.2689  -12.4501   -2.5753 N.pl3     1 <1>        -0.1421 
     10 C10         0.8563  -11.4606   -1.8285 C.2       1 <1>         0.1404 
     11 N11        -0.3915  -11.4710   -1.7006 N.2       1 <1>        -0.2874 
     12 C12        -0.9646  -12.5721   -2.4131 C.2       1 <1>         0.0615 
     13 N13         0.1017  -13.0923   -2.8883 N.2       1 <1>        -0.1803 
     14 C14         2.4765  -14.0843   -3.7975 C.3       1 <1>         0.1179 
     15 O15         3.6759  -14.8503   -3.5385 O.3       1 <1>        -0.3774 
     16 C16         2.2303  -13.8118   -5.3324 C.3       1 <1>        -0.0005 
     17 C17         1.8713  -12.3174   -5.6169 C.3       1 <1>        -0.0559 
     18 C18         3.4936  -14.1476   -6.1852 C.3       1 <1>        -0.0559 
     19 C19         1.0505  -14.6934   -5.8433 C.3       1 <1>        -0.0559 
     20 H1          6.4792   -8.4469   -2.1966 H         1 <1>         0.0267 
     21 H2          4.7167   -8.1917   -2.1157 H         1 <1>         0.0267 
     22 H3          5.6943   -8.0858    0.1775 H         1 <1>         0.0265 
     23 H4          6.4356   -9.6930   -0.0383 H         1 <1>         0.0265 
     24 H5          3.4099   -9.0861    0.0080 H         1 <1>         0.0267 
     25 H6          4.3404   -9.9019    1.2938 H         1 <1>         0.0267 
     26 H7          3.1493  -11.5894   -0.1147 H         1 <1>         0.0284 
     27 H8          4.8964  -11.7802   -0.2828 H         1 <1>         0.0284 
     28 H9          3.2048  -10.1540   -2.3377 H         1 <1>         0.0386 
     29 H10         5.2609  -10.1147   -3.6361 H         1 <1>         0.0284 
     30 H11         6.1432  -10.9242   -2.3151 H         1 <1>         0.0284 
     31 H12         4.5533  -12.6800   -3.1415 H         1 <1>         0.0309 
     32 H13         1.3585  -10.6577   -1.3039 H         1 <1>         0.1358 
     33 H14        -2.0044  -12.8789   -2.5198 H         1 <1>         0.0859 
     34 H15         1.6851  -14.7305   -3.3798 H         1 <1>         0.0774 
     35 H16         3.6690  -15.7298   -3.9019 H         1 <1>         0.2129 
     36 H17         1.6898  -12.1520   -6.6910 H         1 <1>         0.0237 
     37 H18         2.6961  -11.6525   -5.3156 H         1 <1>         0.0237 
     38 H19         0.9587  -12.0137   -5.0835 H         1 <1>         0.0237 
     39 H20         4.3707  -13.6062   -5.7998 H         1 <1>         0.0237 
     40 H21         3.3459  -13.8568   -7.2371 H         1 <1>         0.0237 
     41 H22         3.7161  -15.2248   -6.1821 H         1 <1>         0.0237 
     42 H23         0.8839  -14.5416   -6.9214 H         1 <1>         0.0237 
     43 H24         0.1180  -14.4400   -5.3152 H         1 <1>         0.0237 
     44 H25         1.2682  -15.7594   -5.6744 H         1 <1>         0.0237 
@<TRIPOS>BOND
     1    2    1 1    
     2    2    3 1    
     3    3    4 1    
     4    4    5 1    
     5    5    6 1    
     6    1    6 1    
     7    5    7 1    
     8    7    8 2    
     9    8    9 1    
    10    9   10 1    
    11   10   11 2    
    12   11   12 1    
    13   12   13 2    
    14    9   13 1    
    15    8   14 1    
    16   14   15 1    
    17   14   16 1    
    18   16   17 1    
    19   16   18 1    
    20   16   19 1    
    21    1   20 1    
    22    1   21 1    
    23    2   22 1    
    24    2   23 1    
    25    3   24 1    
    26    3   25 1    
    27    4   26 1    
    28    4   27 1    
    29    5   28 1    
    30    6   29 1    
    31    6   30 1    
    32    7   31 1    
    33   10   32 1    
    34   12   33 1    
    35   14   34 1    
    36   15   35 1    
    37   17   36 1    
    38   17   37 1    
    39   17   38 1    
    40   18   39 1    
    41   18   40 1    
    42   18   41 1    
    43   19   42 1    
    44   19   43 1    
    45   19   44 1    
@<TRIPOS>SUBSTRUCTURE
     1 ****        2 TEMP              0 ****  ****    0 ROOT 
@<TRIPOS>NORMAL
@<TRIPOS>FF_PBC
FORCE_FIELD_SETUP_FEATURE Force Field Setup information
v1.0  0 0.000000 0.000000 0.000000 0.000000 0.000000 0.000000 NONE 0 0 0 0 1 0 0 0 0 0 0 0 0
