#	Name:			PISM00434
#	Creating user name:	baoopengkun
#	Creation time:		Sun Mar 31 15:40:46 2019

#	Modifying user name:	baoopengkun
#	Modification time:	Sun Mar 31 15:45:56 2019

@<TRIPOS>MOLECULE
PISM00434
   41    41     1     1     0
SMALL
GAST_HUCK


@<TRIPOS>ATOM
      1 C1         -3.8996    1.2615    5.2548 C.3       1 AZIDO      -0.0429 
      2 C2         -4.5580    2.3230    6.1898 C.3       1 AZIDO       0.0184 
      3 C3         -4.7463    1.7532    7.5568 C.2       1 AZIDO       0.1469 
      4 C4         -3.8284    0.7097    8.0167 C.2       1 AZIDO       0.0135 
      5 C5         -2.8214    0.2407    7.2627 C.2       1 AZIDO      -0.0663 
      6 C6         -2.5153    0.7366    5.8428 C.3       1 AZIDO       0.0372 
      7 C7         -4.8902    0.0515    5.1051 C.3       1 AZIDO      -0.0711 
      8 C8         -3.8397    1.9279    3.8487 C.3       1 AZIDO      -0.0711 
      9 O9         -5.6505    2.1455    8.2773 O.2       1 AZIDO      -0.3647 
     10 C10        -1.9355   -0.8247    7.8606 C.3       1 AZIDO      -0.0365 
     11 C11        -1.2819    1.6154    6.0827 C.2       1 AZIDO      -0.0855 
     12 C12        -0.0902    1.7153    5.4420 C.2       1 AZIDO      -0.0136 
     13 C13         0.4665    1.1682    4.1679 C.2       1 AZIDO       0.0309 
     14 C14        -0.4641    1.0856    2.9841 C.3       1 AZIDO      -0.0116 
     15 C15         1.7512    0.8227    3.9292 C.2       1 AZIDO       0.0993 
     16 C16         2.9624    0.9164    4.7749 C.2       1 AZIDO       0.4402 
     17 O17         2.9167    1.2616    5.9302 O.2       1 AZIDO      -0.2447 
     18 ****        4.2609    0.6160    4.1666 N.2       1 AZIDO       0.1806 
     19 N2          5.2957    0.7513    4.7763 N.1       1 AZIDO      -0.0179 
     20 ****        6.3346    0.8761    5.3642 N.2       1 AZIDO       0.0637 
     21 O21        -1.9895   -0.3367    5.0459 O.3       1 AZIDO      -0.4653 
     22 H1         -5.5496    2.6184    5.8068 H         1 AZIDO       0.0475 
     23 H2         -3.9453    3.2316    6.2803 H         1 AZIDO       0.0475 
     24 H3         -4.0129    0.3298    9.0215 H         1 AZIDO       0.0974 
     25 H4         -4.8759   -0.6248    5.9718 H         1 AZIDO       0.0221 
     26 H5         -5.9306    0.3871    4.9783 H         1 AZIDO       0.0221 
     27 H6         -4.6436   -0.5482    4.2156 H         1 AZIDO       0.0221 
     28 H7         -3.3286    2.9021    3.8797 H         1 AZIDO       0.0221 
     29 H8         -3.3487    1.2655    3.1263 H         1 AZIDO       0.0221 
     30 H9         -4.8606    2.1023    3.4689 H         1 AZIDO       0.0221 
     31 H10        -2.5424   -1.7240    8.0468 H         1 AZIDO       0.0417 
     32 H11        -1.5383   -0.4625    8.8217 H         1 AZIDO       0.0417 
     33 H12        -1.0862   -1.0931    7.2183 H         1 AZIDO       0.0417 
     34 H13        -1.3673    2.2484    6.9697 H         1 AZIDO       0.0543 
     35 H14         0.6414    2.3478    5.9479 H         1 AZIDO       0.1124 
     36 H15         0.0458    1.2904    2.0293 H         1 AZIDO       0.0433 
     37 H16        -1.1892    1.8953    3.1070 H         1 AZIDO       0.0433 
     38 H17        -0.9678    0.1132    2.9062 H         1 AZIDO       0.0433 
     39 H18         2.0053    0.4248    2.9458 H         1 AZIDO       0.1052 
     40 H19         7.2147    0.7052    4.9053 H         1 AZIDO       0.4280 
     41 H20        -2.5335   -1.1156    5.0321 H         1 AZIDO       0.1803 
@<TRIPOS>BOND
     1    1    2 1    
     2    2    3 1    
     3    4    3 1    
     4    5    4 2    
     5    6    5 1    
     6    6    1 1    
     7    1    7 1    
     8    1    8 1    
     9    3    9 2    
    10    5   10 1    
    11   11    6 1    
    12   12   11 2    
    13   13   12 1    
    14   13   14 1    
    15   15   13 2    
    16   16   15 1    
    17   16   17 2    
    18   18   19 2    
    19   19   20 2    
    20   18   16 1    
    21    6   21 1    
    22    2   22 1    
    23    2   23 1    
    24    4   24 1    
    25    7   25 1    
    26    7   26 1    
    27    7   27 1    
    28    8   28 1    
    29    8   29 1    
    30    8   30 1    
    31   10   31 1    
    32   10   32 1    
    33   10   33 1    
    34   11   34 1    
    35   12   35 1    
    36   14   36 1    
    37   14   37 1    
    38   14   38 1    
    39   15   39 1    
    40   20   40 1    
    41   21   41 1    
@<TRIPOS>SUBSTRUCTURE
     1 AZIDO      18 PERM              0 ****  ****    0 ROOT 
@<TRIPOS>NORMAL
@<TRIPOS>FF_PBC
FORCE_FIELD_SETUP_FEATURE Force Field Setup information
v1.0  0 0.000000 0.000000 0.000000 0.000000 0.000000 0.000000 NONE 0 0 0 0 1 0 0 0 0 0 0 0 0
