#	Name:			PISM01121
#	Creating user name:	Qinrunwen
#	Creation time:		Wed Apr 03 09:52:58 2019

#	Modifying user name:	Qinrunwen
#	Modification time:	Wed Apr 03 10:47:59 2019

@<TRIPOS>MOLECULE
PISM01121
  194   199     2     1     0
SMALL
GAST_HUCK


@<TRIPOS>ATOM
      1 N1         -2.3895   30.7185  -15.7804 N.am      1 <1>        -0.2860 
      2 C2         -2.5773   30.6319  -14.4361 C.2       1 <1>         0.1711 
      3 N3         -2.9183   31.7739  -13.8069 N.am      1 <1>        -0.2860 
      4 N4         -2.4565   29.5626  -13.7408 N.2       1 <1>        -0.4019 
      5 C5         -2.0276   28.3770  -14.4601 C.3       1 <1>        -0.0442 
      6 C6         -1.8642   27.2524  -13.4065 C.3       1 <1>        -0.0521 
      7 C7         -1.2606   25.9658  -14.0344 C.3       1 <1>        -0.0330 
      8 C8         -1.0574   24.8402  -12.9860 C.3       1 <1>         0.0300 
      9 N9         -0.2638   23.7850  -13.6155 N.am      1 <1>        -0.2885 
     10 C10        -0.8592   22.7346  -14.2280 C.2       1 <1>         0.1982 
     11 C11        -0.0505   21.7414  -14.9716 C.2       1 <1>         0.0831 
     12 O12        -2.0697   22.5789  -14.1895 O.2       1 <1>        -0.3927 
     13 C13         1.1348   21.9380  -15.5658 C.2       1 <1>         0.0305 
     14 S14         1.8065   20.4845  -16.3826 S.3       1 <1>         0.0077 
     15 C15         0.3516   19.6304  -15.8347 C.2       1 <1>         0.1060 
     16 N16        -0.4399   20.3679  -15.1773 N.2       1 <1>        -0.3056 
     17 C17         0.0767   18.1761  -16.1103 C.3       1 <1>         0.0815 
     18 C18         1.2203   17.2750  -15.5778 C.3       1 <1>         0.0426 
     19 S19         2.4580   17.2562  -16.8998 S.3       1 <1>        -0.0481 
     20 C20         1.0675   17.4868  -17.9744 C.2       1 <1>         0.0781 
     21 N21        -0.0269   17.9586  -17.5352 N.2       1 <1>        -0.3332 
     22 C22         1.1433   17.1190  -19.4296 C.3       1 <1>         0.0424 
     23 N23        -1.3375   17.0103  -19.7457 N.am      1 <1>        -0.2651 
     24 H1         -2.4967   31.5950  -16.2430 H         1 <1>         0.1995 
     25 C25        -2.5356   16.3921  -19.6031 C.2       1 <1>         0.2925 
     26 N26        -3.7047   17.0959  -19.6208 N.am      1 <1>        -0.1432 
     27 C27        -0.0912   16.2499  -19.7895 C.3       1 <1>         0.0506 
     28 C28        -3.6487   18.5677  -19.6909 C.3       1 <1>         0.1638 
     29 O29        -2.5388   19.0154  -20.4966 O.3       1 <1>        -0.3662 
     30 C30        -3.5255   19.1283  -18.2529 C.3       1 <1>        -0.0126 
     31 C31        -4.9543   16.5510  -19.5361 C.2       1 <1>         0.2144 
     32 C32        -5.3360   15.0793  -19.6015 C.3       1 <1>         0.0791 
     33 C33        -6.5183   14.9476  -20.6074 C.3       1 <1>        -0.0424 
     34 C34        -5.6046   14.5902  -18.1365 C.3       1 <1>         0.0973 
     35 C35        -6.2851   13.1849  -17.9765 C.3       1 <1>         0.0675 
     36 N36        -5.7828   12.5348  -16.7526 N.am      1 <1>        -0.2794 
     37 C37        -6.5406   11.8138  -15.8853 C.2       1 <1>         0.2067 
     38 C38        -5.8975   11.1732  -14.6715 C.3       1 <1>         0.1683 
     39 C39        -5.3733    9.7899  -15.1500 C.3       1 <1>         0.1562 
     40 O40        -2.5271   15.1819  -19.4514 O.2       1 <1>        -0.3913 
     41 O41        -5.9179   17.2897  -19.4013 O.2       1 <1>        -0.3862 
     42 O42        -4.3511   14.6456  -17.4202 O.3       1 <1>        -0.3869 
     43 C43        -7.8410   13.2866  -18.0379 C.3       1 <1>        -0.0394 
     44 O44        -7.7339   11.5870  -16.0144 O.2       1 <1>        -0.3942 
     45 C45        -6.4741    8.7506  -15.3001 C.2       1 <1>         0.0854 
     46 N46        -7.6893    9.0061  -15.7270 N.pl3     1 <1>        -0.2601 
     47 C47        -8.3445    7.9053  -15.7293 C.2       1 <1>         0.0876 
     48 N48        -7.5870    6.9983  -15.3188 N.2       1 <1>        -0.3436 
     49 C49        -6.2534    7.4500  -14.9802 C.2       1 <1>        -0.0249 
     50 O50        -4.6012   10.0065  -16.3576 O.3       1 <1>        -0.3260 
     51 C51        -3.9033    8.8423  -16.8470 C.3       1 <1>         0.1912 
     52 O52        -4.8005    7.7937  -17.2490 O.3       1 <1>        -0.3404 
     53 C53        -5.2744    7.8832  -18.6053 C.3       1 <1>         0.1130 
     54 C54        -4.0829    7.6270  -19.5762 C.3       1 <1>         0.1119 
     55 C55        -2.7240    8.0399  -18.9278 C.3       1 <1>         0.1144 
     56 C56        -2.8873    9.2388  -17.9531 C.3       1 <1>         0.1408 
     57 C57        -6.1165    9.1569  -18.9365 C.3       1 <1>         0.0730 
     58 O58        -5.3830   10.2697  -19.4762 O.3       1 <1>        -0.3924 
     59 O59        -4.2727    8.3075  -20.8374 O.3       1 <1>        -0.3865 
     60 O60        -1.7638    8.2706  -19.9733 O.3       1 <1>        -0.3864 
     61 O61        -1.6772    9.6611  -17.2790 O.3       1 <1>        -0.3377 
     62 C62        -0.6091   10.0695  -18.1530 C.3       1 <1>         0.1889 
     63 C63         0.2732   11.0150  -17.3073 C.3       1 <1>         0.1387 
     64 C64         1.4875   11.4949  -18.1368 C.3       1 <1>         0.1468 
     65 C65         0.9854   12.1604  -19.4523 C.3       1 <1>         0.1164 
     66 C66        -0.1347   11.3300  -20.1497 C.3       1 <1>         0.1133 
     67 O67        -1.1371   10.8461  -19.2373 O.3       1 <1>        -0.3405 
     68 C68        -0.9620   12.1461  -21.1850 C.3       1 <1>         0.0730 
     69 O69        -0.1902   12.7994  -22.2103 O.3       1 <1>        -0.3924 
     70 O70         2.1331   12.2599  -20.3225 O.3       1 <1>        -0.3861 
     71 O71         2.1800   12.4066  -17.2512 O.3       1 <1>        -0.2553 
     72 O72        -0.5109   12.1574  -16.9035 O.3       1 <1>        -0.3837 
     73 C73         3.3813   12.8855  -17.6115 C.2       1 <1>         0.3173 
     74 N74         4.0322   12.5810  -18.7502 N.am      1 <1>        -0.2763 
     75 O75         3.9008   13.6524  -16.8197 O.2       1 <1>        -0.3777 
     76 N76        -4.8712   12.0267  -14.0498 N.am      1 <1>        -0.2591 
     77 C77        -5.2274   13.2477  -13.5820 C.2       1 <1>         0.2230 
     78 O78        -6.3789   13.6306  -13.7025 O.2       1 <1>        -0.3790 
     79 C79        -4.2560   14.1713  -12.8649 C.ar      1 <1>         0.1170 
     80 C80        -2.9234   14.3804  -13.2624 C.ar      1 <1>         0.0372 
     81 C81        -2.1079   15.1396  -12.4093 C.ar      1 <1>         0.1275 
     82 N82        -2.6025   15.6281  -11.2585 N.ar      1 <1>        -0.2547 
     83 C83        -3.9169   15.5667  -10.9919 C.ar      1 <1>         0.1018 
     84 N84        -4.7244   14.8314  -11.7829 N.ar      1 <1>        -0.2730 
     85 C85        -2.3631   13.8237  -14.5794 C.3       1 <1>        -0.0229 
     86 N86        -0.8104   15.4397  -12.6558 N.pl3     1 <1>        -0.3176 
     87 C87        -4.4583   16.3539   -9.7964 C.3       1 <1>         0.0793 
     88 C88        -4.4653   15.4578   -8.5321 C.3       1 <1>         0.0177 
     89 C89        -4.7052   16.3087   -7.3006 C.2       1 <1>         0.0186 
     90 C90        -3.7449   16.5310   -6.3901 C.2       1 <1>         0.0242 
     91 N91        -5.8858   16.8436   -7.1324 N.pl3     1 <1>        -0.3507 
     92 O92        -4.0125   17.2941   -5.3216 O.3       1 <1>        -0.3815 
     93 N93        -3.5816   17.5259   -9.5597 N.3       1 <1>        -0.2932 
     94 C94        -3.5960   18.5921  -10.5901 C.3       1 <1>         0.0312 
     95 C95        -4.9410   19.3713  -10.5950 C.3       1 <1>         0.1082 
     96 C96        -5.3950   19.6141   -9.1693 C.2       1 <1>         0.1918 
     97 N97        -4.6253   20.3358   -8.3298 N.am      1 <1>        -0.2996 
     98 O98        -6.4619   19.1547   -8.7958 O.2       1 <1>        -0.3955 
     99 N99        -5.9648   18.6283  -11.3710 N.3       1 <1>        -0.3097 
    100 H2         -2.1553   29.9517  -16.3674 H         1 <1>         0.1995 
    101 H3         -3.0579   31.7264  -12.8182 H         1 <1>         0.1995 
    102 H4         -3.0332   32.6506  -14.2678 H         1 <1>         0.1995 
    103 H5         -2.7765   28.0426  -15.1981 H         1 <1>         0.0252 
    104 H6         -1.0451   28.5313  -14.9367 H         1 <1>         0.0252 
    105 H7         -1.1960   27.6173  -12.6080 H         1 <1>         0.0264 
    106 H8         -2.8455   27.0257  -12.9552 H         1 <1>         0.0264 
    107 H9         -1.9142   25.5929  -14.8405 H         1 <1>         0.0284 
    108 H10        -0.2803   26.2121  -14.4743 H         1 <1>         0.0284 
    109 H11        -0.5121   25.2384  -12.1143 H         1 <1>         0.0519 
    110 H12        -2.0329   24.4754  -12.6236 H         1 <1>         0.0519 
    111 H13         0.7311   23.8899  -13.6168 H         1 <1>         0.1839 
    112 H14         1.6740   22.8829  -15.5821 H         1 <1>         0.0807 
    113 H15        -0.8759   17.8989  -15.6317 H         1 <1>         0.0636 
    114 H16         1.6378   17.6220  -14.6208 H         1 <1>         0.0454 
    115 H17         0.8663   16.2377  -15.4717 H         1 <1>         0.0454 
    116 H18         1.1778   18.0323  -20.0439 H         1 <1>         0.0576 
    117 H19         2.0660   16.5441  -19.6079 H         1 <1>         0.0576 
    118 H20        -1.2761   17.9971  -19.8838 H         1 <1>         0.1855 
    119 H21         0.0316   15.8506  -20.8076 H         1 <1>         0.0554 
    120 H22        -0.1248   15.4109  -19.0774 H         1 <1>         0.0554 
    121 H23        -4.5547   18.9894  -20.1680 H         1 <1>         0.0918 
    122 H24        -2.5076   19.9637  -20.6016 H         1 <1>         0.2126 
    123 H25        -4.3838   18.7964  -17.6484 H         1 <1>         0.0279 
    124 H26        -2.5999   18.7608  -17.7868 H         1 <1>         0.0279 
    125 H27        -3.5037   20.2289  -18.2658 H         1 <1>         0.0279 
    126 H28        -4.5659   14.4463  -20.0610 H         1 <1>         0.0566 
    127 H29        -7.3983   15.5230  -20.2821 H         1 <1>         0.0258 
    128 H30        -6.2073   15.3492  -21.5855 H         1 <1>         0.0258 
    129 H31        -6.8054   13.8959  -20.7644 H         1 <1>         0.0258 
    130 H32        -6.2538   15.3147  -17.6175 H         1 <1>         0.0644 
    131 H33        -5.9435   12.5683  -18.8218 H         1 <1>         0.0580 
    132 H34        -4.8009   12.5832  -16.5919 H         1 <1>         0.1855 
    133 H35        -6.6737   10.9927  -13.9079 H         1 <1>         0.0851 
    134 H36        -4.7088    9.4207  -14.3512 H         1 <1>         0.0828 
    135 H37        -3.6252   14.2182  -17.8703 H         1 <1>         0.2101 
    136 H38        -8.2195   13.7296  -17.1032 H         1 <1>         0.0253 
    137 H39        -8.2090   13.9118  -18.8561 H         1 <1>         0.0253 
    138 H40        -8.2875   12.2901  -18.1877 H         1 <1>         0.0253 
    139 H41        -8.0716    9.9234  -16.0114 H         1 <1>         0.2387 
    140 H42        -9.3830    7.7595  -16.0304 H         1 <1>         0.1149 
    141 H43        -6.2851    6.3782  -14.7839 H         1 <1>         0.0325 
    142 H44        -3.3136    8.3990  -16.0268 H         1 <1>         0.0939 
    143 H45        -5.9707    7.0308  -18.6777 H         1 <1>         0.0647 
    144 H46        -3.9849    6.5448  -19.7848 H         1 <1>         0.0647 
    145 H47        -2.3267    7.2146  -18.3130 H         1 <1>         0.0648 
    146 H48        -3.2845   10.1068  -18.4898 H         1 <1>         0.0675 
    147 H49        -6.9068    8.9062  -19.6659 H         1 <1>         0.0584 
    148 H50        -6.6144    9.5049  -18.0235 H         1 <1>         0.0584 
    149 H51        -4.9503   10.0707  -20.3026 H         1 <1>         0.2095 
    150 H52        -4.9931    7.9467  -21.3498 H         1 <1>         0.2100 
    151 H53        -2.0605    8.9666  -20.5525 H         1 <1>         0.2100 
    152 H54        -0.0493    9.1837  -18.4959 H         1 <1>         0.0938 
    153 H55         0.6317   10.4776  -16.4119 H         1 <1>         0.0675 
    154 H56         2.0996   10.6049  -18.3596 H         1 <1>         0.0702 
    155 H57         0.5808   13.1466  -19.1818 H         1 <1>         0.0650 
    156 H58         0.3417   10.4758  -20.6598 H         1 <1>         0.0647 
    157 H59        -1.6191   11.4304  -21.7072 H         1 <1>         0.0584 
    158 H60        -1.6196   12.8653  -20.6632 H         1 <1>         0.0584 
    159 H61         0.1057   13.6701  -21.9674 H         1 <1>         0.2095 
    160 H62         1.9503   12.6343  -21.1776 H         1 <1>         0.2100 
    161 H63        -1.3253   11.8784  -16.4959 H         1 <1>         0.2101 
    162 H64         4.9308   12.9930  -18.8928 H         1 <1>         0.1831 
    163 H65         3.6547   11.9970  -19.4646 H         1 <1>         0.1831 
    164 H66        -3.9479   11.6669  -13.9110 H         1 <1>         0.1882 
    165 H67        -3.1530   13.4705  -15.2472 H         1 <1>         0.0392 
    166 H68        -1.8171   14.5918  -15.1461 H         1 <1>         0.0392 
    167 H69        -1.6874   12.9892  -14.3366 H         1 <1>         0.0392 
    168 H70        -0.3275   15.1238  -13.5043 H         1 <1>         0.1792 
    169 H71        -0.2890   16.0009  -11.9674 H         1 <1>         0.1792 
    170 H72        -5.4889   16.6687  -10.0158 H         1 <1>         0.0703 
    171 H73        -5.2456   14.6841   -8.6148 H         1 <1>         0.0454 
    172 H74        -3.4959   14.9393   -8.4695 H         1 <1>         0.0454 
    173 H75        -2.7540   16.0918   -6.5297 H         1 <1>         0.0473 
    174 H76        -6.0687   17.4367   -6.3065 H         1 <1>         0.1667 
    175 H77        -6.6390   16.7045   -7.8221 H         1 <1>         0.1667 
    176 H78        -3.2716   17.3994   -4.7334 H         1 <1>         0.2281 
    177 H79        -2.5668   17.1882   -9.3806 H         1 <1>         0.1256 
    178 H80        -3.3930   18.1858  -11.5926 H         1 <1>         0.0467 
    179 H81        -2.7840   19.3007  -10.3552 H         1 <1>         0.0467 
    180 H82        -4.7958   20.3596  -11.0663 H         1 <1>         0.0714 
    181 H83        -3.7569   20.7382   -8.6132 H         1 <1>         0.1815 
    182 H84        -4.9466   20.4664   -7.3926 H         1 <1>         0.1815 
    183 H85        -6.9458   19.0624  -11.2185 H         1 <1>         0.1211 
    184 H86        -5.7291   18.6196  -12.4278 H         1 <1>         0.1211 
    185 C185        3.8328   -3.2479   -1.5327 C.ar      2 <2>         0.2634 
    186 N186        2.5993   -2.7253   -1.6815 N.ar      2 <2>        -0.2105 
    187 C187        2.4177   -1.3935   -1.5889 C.ar      2 <2>         0.0929 
    188 N188        3.4716   -0.5891   -1.3477 N.ar      2 <2>        -0.2480 
    189 C189        4.7049   -1.1117   -1.1989 C.ar      2 <2>         0.0929 
    190 N190        4.8846   -2.4431   -1.2918 N.ar      2 <2>        -0.2105 
    191 O191        4.0396   -4.6183   -1.6248 O.3       2 <2>        -0.2847 
    192 H87         1.4259   -0.9706   -1.7083 H         2 <2>         0.1199 
    193 H88         5.5526   -0.4641   -1.0048 H         2 <2>         0.1199 
    194 H89         3.2166   -5.0586   -1.7961 H         2 <2>         0.2648 
@<TRIPOS>BOND
     1    2    1 am   
     2    2    3 am   
     3    4    2 2    
     4    5    4 1    
     5    6    5 1    
     6    7    6 1    
     7    8    7 1    
     8    9    8 1    
     9   10    9 am   
    10   11   10 1    
    11   10   12 2    
    12   11   13 2    
    13   14   13 1    
    14   15   14 1    
    15   15   16 2    
    16   16   11 1    
    17   17   15 1    
    18   17   18 1    
    19   19   18 1    
    20   20   19 1    
    21   20   21 2    
    22   21   17 1    
    23   22   20 1    
    24   27   22 1    
    25   23   25 am   
    26   27   23 1    
    27   25   26 am   
    28    1   24 1    
    29   26   28 1    
    30   28   29 1    
    31   28   30 1    
    32   26   31 am   
    33   31   32 1    
    34   32   33 1    
    35   32   34 1    
    36   34   35 1    
    37   35   36 1    
    38   36   37 am   
    39   37   38 1    
    40   38   39 1    
    41   25   40 2    
    42   31   41 2    
    43   34   42 1    
    44   35   43 1    
    45   37   44 2    
    46   39   45 1    
    47   45   46 1    
    48   46   47 1    
    49   47   48 2    
    50   48   49 1    
    51   45   49 2    
    52   39   50 1    
    53   50   51 1    
    54   51   52 1    
    55   52   53 1    
    56   53   54 1    
    57   54   55 1    
    58   55   56 1    
    59   51   56 1    
    60   53   57 1    
    61   57   58 1    
    62   54   59 1    
    63   55   60 1    
    64   56   61 1    
    65   61   62 1    
    66   62   63 1    
    67   63   64 1    
    68   64   65 1    
    69   65   66 1    
    70   66   67 1    
    71   62   67 1    
    72   66   68 1    
    73   68   69 1    
    74   65   70 1    
    75   64   71 1    
    76   63   72 1    
    77   71   73 1    
    78   73   74 am   
    79   73   75 2    
    80   38   76 1    
    81   76   77 am   
    82   77   78 2    
    83   77   79 1    
    84   79   80 ar   
    85   80   81 ar   
    86   81   82 ar   
    87   82   83 ar   
    88   83   84 ar   
    89   79   84 ar   
    90   80   85 1    
    91   81   86 1    
    92   83   87 1    
    93   87   88 1    
    94   88   89 1    
    95   89   90 2    
    96   89   91 1    
    97   90   92 1    
    98   87   93 1    
    99   93   94 1    
   100   94   95 1    
   101   95   96 1    
   102   96   97 am   
   103   96   98 2    
   104   95   99 1    
   105    1  100 1    
   106    3  101 1    
   107    3  102 1    
   108    5  103 1    
   109    5  104 1    
   110    6  105 1    
   111    6  106 1    
   112    7  107 1    
   113    7  108 1    
   114    8  109 1    
   115    8  110 1    
   116    9  111 1    
   117   13  112 1    
   118   17  113 1    
   119   18  114 1    
   120   18  115 1    
   121   22  116 1    
   122   22  117 1    
   123   23  118 1    
   124   27  119 1    
   125   27  120 1    
   126   28  121 1    
   127   29  122 1    
   128   30  123 1    
   129   30  124 1    
   130   30  125 1    
   131   32  126 1    
   132   33  127 1    
   133   33  128 1    
   134   33  129 1    
   135   34  130 1    
   136   35  131 1    
   137   36  132 1    
   138   38  133 1    
   139   39  134 1    
   140   42  135 1    
   141   43  136 1    
   142   43  137 1    
   143   43  138 1    
   144   46  139 1    
   145   47  140 1    
   146   49  141 1    
   147   51  142 1    
   148   53  143 1    
   149   54  144 1    
   150   55  145 1    
   151   56  146 1    
   152   57  147 1    
   153   57  148 1    
   154   58  149 1    
   155   59  150 1    
   156   60  151 1    
   157   62  152 1    
   158   63  153 1    
   159   64  154 1    
   160   65  155 1    
   161   66  156 1    
   162   68  157 1    
   163   68  158 1    
   164   69  159 1    
   165   70  160 1    
   166   72  161 1    
   167   74  162 1    
   168   74  163 1    
   169   76  164 1    
   170   85  165 1    
   171   85  166 1    
   172   85  167 1    
   173   86  168 1    
   174   86  169 1    
   175   87  170 1    
   176   88  171 1    
   177   88  172 1    
   178   90  173 1    
   179   91  174 1    
   180   91  175 1    
   181   92  176 1    
   182   93  177 1    
   183   94  178 1    
   184   94  179 1    
   185   95  180 1    
   186   97  181 1    
   187   97  182 1    
   188   99  183 1    
   189   99  184 1    
   190  186  185 ar   
   191  186  187 ar   
   192  187  188 ar   
   193  188  189 ar   
   194  189  190 ar   
   195  185  190 ar   
   196  185  191 1    
   197  187  192 1    
   198  189  193 1    
   199  191  194 1    
@<TRIPOS>SUBSTRUCTURE
     1 ****       27 TEMP              0 ****  ****    0 ROOT 
     2 ****      186 TEMP              0 ****  ****    0 ROOT 
@<TRIPOS>NORMAL
@<TRIPOS>FF_PBC
FORCE_FIELD_SETUP_FEATURE Force Field Setup information
v1.0  0 0.000000 0.000000 0.000000 0.000000 0.000000 0.000000 NONE 0 0 0 0 1 0 0 0 0 0 0 0 0
