#	Name:			PISM00859.1
#	Creating user name:	baoopengkun
#	Creation time:		Thu Dec 13 15:12:19 2018

#	Modifying user name:	baoopengkun
#	Modification time:	Thu Dec 13 22:35:18 2018

@<TRIPOS>MOLECULE
PISM00859.1
   26    27     1     1     0
SMALL
GAST_HUCK


@<TRIPOS>ATOM
      1 F1          0.1414    0.6118    0.7807 F         1 <1>        -0.2011 
      2 C2          2.2554   -0.2976    1.2968 C.ar      1 <1>        -0.0480 
      3 C3          3.6486   -0.1817    1.3054 C.ar      1 <1>        -0.0498 
      4 C4          4.2786    0.9670    0.8036 C.ar      1 <1>         0.1183 
      5 C5          3.4726    1.9942    0.2915 C.ar      1 <1>        -0.0102 
      6 C6          2.0800    1.8810    0.2718 C.ar      1 <1>         0.1201 
      7 C7          1.4668    0.7326    0.7814 C.ar      1 <1>         0.1454 
      8 N8          5.6345    1.0819    0.8124 N.pl3     1 <1>         0.1162 
      9 O9          1.3166    2.9237   -0.2563 O.3       1 <1>        -0.2740 
     10 C10         0.6019    2.6185   -1.4633 C.3       1 <1>         0.2347 
     11 O11        -0.0202    3.8346   -1.9232 O.3       1 <1>        -0.2315 
     12 C12         0.5622    4.1108   -3.0834 C.2       1 <1>         0.2494 
     13 C13         1.5580    3.1443   -3.5317 C.2       1 <1>         0.0292 
     14 C14         1.5709    2.2366   -2.5580 C.2       1 <1>        -0.0021 
     15 C15         2.3651    3.1617   -4.8009 C.3       1 <1>        -0.0323 
     16 O16         0.2750    5.1032   -3.7303 O.2       1 <1>        -0.3691 
     17 H1          1.7780   -1.1891    1.6911 H         1 <1>         0.0543 
     18 H2          4.2315   -1.0030    1.7102 H         1 <1>         0.0417 
     19 H3          3.9124    2.9036   -0.1035 H         1 <1>         0.0428 
     20 H4         -0.1726    1.8480   -1.3194 H         1 <1>         0.1197 
     21 H5          2.1973    1.3455   -2.5491 H         1 <1>         0.0705 
     22 H6          2.4236    2.1494   -5.2282 H         1 <1>         0.0347 
     23 H7          3.3817    3.5213   -4.5833 H         1 <1>         0.0347 
     24 H8          1.8980    3.8324   -5.5376 H         1 <1>         0.0347 
     25 O25         6.2845    0.1792    1.2933 O.2       1 <1>        -0.1143 
     26 O26         6.1283    2.0813    0.3368 O.2       1 <1>        -0.1143 
@<TRIPOS>BOND
     1    7    1 1    
     2    2    3 ar   
     3    3    4 ar   
     4    4    5 ar   
     5    5    6 ar   
     6    6    7 ar   
     7    2    7 ar   
     8    4    8 1    
     9    6    9 1    
    10    9   10 1    
    11   10   11 1    
    12   11   12 1    
    13   12   13 1    
    14   13   14 2    
    15   10   14 1    
    16   13   15 1    
    17   12   16 2    
    18    2   17 1    
    19    3   18 1    
    20    5   19 1    
    21   10   20 1    
    22   14   21 1    
    23   15   22 1    
    24   15   23 1    
    25   15   24 1    
    26    8   25 2    
    27    8   26 2    
@<TRIPOS>SUBSTRUCTURE
     1 ****        2 TEMP              0 ****  ****    0 ROOT 
@<TRIPOS>NORMAL
@<TRIPOS>FF_PBC
FORCE_FIELD_SETUP_FEATURE Force Field Setup information
v1.0  0 0.000000 0.000000 0.000000 0.000000 0.000000 0.000000 NONE 0 0 0 0 1 0 0 0 0 0 0 0 0
