#	Name:			PISM00234
#	Creating user name:	14062
#	Creation time:		Sat Apr 06 01:51:30 2019

#	Modifying user name:	14062
#	Modification time:	Sat Apr 06 01:53:58 2019

@<TRIPOS>MOLECULE
PISM00234
   39    41     2     1     0
SMALL
GAST_HUCK


@<TRIPOS>ATOM
      1 C1         -1.8608    0.2890    2.6698 C.2       1 BENZYL      0.2349 
      2 N2         -2.6411    0.3520    1.6215 N.pl3     1 BENZYL     -0.2370 
      3 C2         -2.1658    0.2603    0.3519 C.ar      1 BENZYL      0.0765 
      4 C3         -2.8672   -0.4866   -0.6062 C.ar      1 BENZYL      0.0839 
      5 C4         -2.2079   -0.8988   -1.7745 C.ar      1 BENZYL     -0.0341 
      6 C5         -1.0120   -0.2704   -2.1377 C.ar      1 BENZYL     -0.0663 
      7 C6         -0.4149    0.6551   -1.2793 C.ar      1 BENZYL     -0.0740 
      8 C7         -0.9850    0.9092   -0.0296 C.ar      1 BENZYL     -0.0404 
      9 C9         -2.7284   -2.0383   -2.6632 C.3       1 BENZYL     -0.0300 
     10 C10        -4.3218   -0.8145   -0.3270 C.2       1 BENZYL      0.2481 
     11 O11        -4.6780   -0.9392    0.8331 O.2       1 BENZYL     -0.3686 
     12 O12        -5.2591   -0.9379   -1.2687 O.3       1 BENZYL     -0.2966 
     13 O13        -0.6520    0.1537    2.5701 O.2       1 BENZYL     -0.3722 
     14 C14        -2.4053    0.3557    4.0463 C.2       1 BENZYL      0.1071 
     15 C15        -1.6813    0.1748    5.1546 C.2       1 BENZYL     -0.0504 
     16 C16        -2.4719    0.2792    6.3890 C.2       1 BENZYL     -0.0565 
     17 C17        -3.7629    0.5434    6.1570 C.2       1 BENZYL      0.0430 
     18 S18        -4.1183    0.6856    4.4130 S.3       1 BENZYL     -0.0198 
     19 H1         -3.6622    0.4050    1.7593 H         1 BENZYL      0.2117 
     20 C2         -4.8345    0.7047    7.2196 C.ar      2 BENZYL     -0.0054 
     21 C3         -4.5174    0.9033    8.5702 C.ar      2 BENZYL     -0.0533 
     22 C4         -5.5244    0.9948    9.5357 C.ar      2 BENZYL     -0.0616 
     23 C5         -6.8672    0.9265    9.1576 C.ar      2 BENZYL     -0.0621 
     24 C6         -7.1962    0.7695    7.8095 C.ar      2 BENZYL     -0.0616 
     25 C7         -6.1852    0.6554    6.8506 C.ar      2 BENZYL     -0.0533 
     26 H2         -0.5396   -0.5020   -3.0876 H         1 BENZYL      0.0469 
     27 H3          0.4924    1.1708   -1.5797 H         1 BENZYL      0.0607 
     28 H4         -0.5065    1.6211    0.6346 H         1 BENZYL      0.0486 
     29 H5         -1.8846   -2.6739   -2.9716 H         1 BENZYL      0.0403 
     30 H6         -3.2031   -1.6275   -3.5669 H         1 BENZYL      0.0403 
     31 H7         -3.4440   -2.6783   -2.1264 H         1 BENZYL      0.0403 
     32 H8         -4.9644   -0.6753   -2.1297 H         1 BENZYL      0.2517 
     33 H9         -0.6119   -0.0349    5.1552 H         1 BENZYL      0.0532 
     34 H10        -1.9990    0.1366    7.3583 H         1 BENZYL      0.0471 
     35 H11        -3.4882    0.9960    8.8936 H         2 BENZYL      0.0622 
     36 H12        -5.2640    1.1213   10.5825 H         2 BENZYL      0.0617 
     37 H13        -7.6503    0.9958    9.9067 H         2 BENZYL      0.0614 
     38 H14        -8.2385    0.7345    7.5073 H         2 BENZYL      0.0617 
     39 H15        -6.4687    0.5234    5.8125 H         2 BENZYL      0.0622 
@<TRIPOS>BOND
     1    2    3 1    
     2    3    4 ar   
     3    3    8 ar   
     4    8    7 ar   
     5    7    6 ar   
     6    6    5 ar   
     7    5    4 ar   
     8    2    1 1    
     9    5    9 1    
    10    4   10 1    
    11   10   11 2    
    12   10   12 1    
    13    1   13 2    
    14    1   14 1    
    15   14   15 2    
    16   15   16 1    
    17   16   17 2    
    18   17   18 1    
    19   14   18 1    
    20   20   17 1    
    21   20   21 ar   
    22   20   25 ar   
    23   25   24 ar   
    24   24   23 ar   
    25   23   22 ar   
    26   22   21 ar   
    27    2   19 1    
    28    6   26 1    
    29    7   27 1    
    30    8   28 1    
    31    9   29 1    
    32    9   30 1    
    33    9   31 1    
    34   12   32 1    
    35   15   33 1    
    36   16   34 1    
    37   21   35 1    
    38   22   36 1    
    39   23   37 1    
    40   24   38 1    
    41   25   39 1    
@<TRIPOS>SUBSTRUCTURE
     1 BENZYL      2 PERM              0 ****  ****    1  
     2 BENZYL     20 PERM              0 ****  ****    1 ROOT 
@<TRIPOS>NORMAL
@<TRIPOS>FF_PBC
FORCE_FIELD_SETUP_FEATURE Force Field Setup information
v1.0  0 0.000000 0.000000 0.000000 0.000000 0.000000 0.000000 NONE 0 0 0 0 1 0 0 0 0 0 0 0 0
