#	Name:			PISM01207
#	Creating user name:	14062
#	Creation time:		Sun Apr 07 00:44:02 2019

#	Modifying user name:	14062
#	Modification time:	Sun Apr 07 00:45:51 2019

@<TRIPOS>MOLECULE
PISM01207
   42    44     1     1     0
SMALL
GAST_HUCK


@<TRIPOS>ATOM
      1 C1        -14.3045   12.4018   -6.7639 C.3       1 <1>        -0.0368 
      2 C2        -12.9399   11.6853   -6.6319 C.3       1 <1>         0.0696 
      3 O3        -13.1121   10.3285   -7.0728 O.3       1 <1>        -0.3133 
      4 C4        -12.0751    9.3835   -7.0390 C.ar      1 <1>         0.1044 
      5 C5        -10.7931    9.7120   -6.5823 C.ar      1 <1>        -0.0321 
      6 C6         -9.8316    8.7117   -6.4276 C.ar      1 <1>        -0.0478 
      7 C7        -10.1357    7.3821   -6.7304 C.ar      1 <1>         0.1014 
      8 C8        -11.3327    7.0927   -7.3990 C.ar      1 <1>         0.0004 
      9 C9        -12.3311    8.0754   -7.4719 C.ar      1 <1>         0.0196 
     10 C10       -13.5931    7.7425   -7.9808 C.ar      1 <1>        -0.0531 
     11 C11       -13.8433    6.4607   -8.4764 C.ar      1 <1>        -0.0633 
     12 C12       -12.8162    5.5156   -8.5012 C.ar      1 <1>        -0.0640 
     13 C13       -11.5566    5.8449   -7.9950 C.ar      1 <1>        -0.0568 
     14 S14        -8.9580    6.1217   -6.2674 S.o2      1 <1>         0.0640 
     15 O15        -7.8801    6.1221   -7.2356 O.2       1 <1>        -0.1521 
     16 O16        -9.6474    4.8848   -5.9574 O.2       1 <1>        -0.1521 
     17 N17        -8.3870    6.7122   -4.8565 N.am      1 <1>        -0.2354 
     18 C18        -9.1680    6.6361   -3.6247 C.3       1 <1>         0.0754 
     19 C19       -10.4853    7.4017   -3.7797 C.ar      1 <1>         0.0465 
     20 N20       -10.5210    8.7120   -3.4567 N.ar      1 <1>        -0.2964 
     21 C21       -11.6375    9.4537   -3.6101 C.ar      1 <1>         0.0028 
     22 C22       -12.8064    8.8764   -4.1135 C.ar      1 <1>        -0.0410 
     23 C23       -12.8088    7.5165   -4.4322 C.ar      1 <1>        -0.0488 
     24 C24       -11.6423    6.7697   -4.2495 C.ar      1 <1>        -0.0308 
     25 H1        -14.2241   13.4510   -6.4385 H         1 <1>         0.0256 
     26 H2        -15.0558   11.8917   -6.1410 H         1 <1>         0.0256 
     27 H3        -14.6407   12.3784   -7.8123 H         1 <1>         0.0256 
     28 H4        -12.6210   11.7138   -5.5772 H         1 <1>         0.0616 
     29 H5        -12.1966   12.2029   -7.2603 H         1 <1>         0.0616 
     30 H6        -10.5188   10.7299   -6.3348 H         1 <1>         0.0499 
     31 H7         -8.8447    8.9714   -6.0607 H         1 <1>         0.0601 
     32 H8        -14.3947    8.4742   -7.9990 H         1 <1>         0.0631 
     33 H9        -14.8310    6.2010   -8.8455 H         1 <1>         0.0591 
     34 H10       -12.9962    4.5279   -8.9150 H         1 <1>         0.0614 
     35 H11       -10.7596    5.1160   -8.0843 H         1 <1>         0.0600 
     36 H12        -7.4826    7.1429   -4.8341 H         1 <1>         0.1701 
     37 H13        -8.6214    7.0836   -2.7787 H         1 <1>         0.0668 
     38 H14        -9.3676    5.5825   -3.3763 H         1 <1>         0.0668 
     39 H15       -11.6181   10.5038   -3.3398 H         1 <1>         0.0803 
     40 H16       -13.6998    9.4761   -4.2566 H         1 <1>         0.0652 
     41 H17       -13.7067    7.0456   -4.8201 H         1 <1>         0.0719 
     42 H18       -11.6394    5.7093   -4.4775 H         1 <1>         0.0652 
@<TRIPOS>BOND
     1    2    1 1    
     2    2    3 1    
     3    3    4 1    
     4    4    5 ar   
     5    5    6 ar   
     6    6    7 ar   
     7    7    8 ar   
     8    8    9 ar   
     9    4    9 ar   
    10    9   10 ar   
    11   10   11 ar   
    12   11   12 ar   
    13   12   13 ar   
    14    8   13 ar   
    15    7   14 1    
    16   14   15 2    
    17   14   16 2    
    18   14   17 1    
    19   17   18 1    
    20   18   19 1    
    21   19   20 ar   
    22   20   21 ar   
    23   21   22 ar   
    24   22   23 ar   
    25   23   24 ar   
    26   19   24 ar   
    27    1   25 1    
    28    1   26 1    
    29    1   27 1    
    30    2   28 1    
    31    2   29 1    
    32    5   30 1    
    33    6   31 1    
    34   10   32 1    
    35   11   33 1    
    36   12   34 1    
    37   13   35 1    
    38   17   36 1    
    39   18   37 1    
    40   18   38 1    
    41   21   39 1    
    42   22   40 1    
    43   23   41 1    
    44   24   42 1    
@<TRIPOS>SUBSTRUCTURE
     1 ****        2 TEMP              0 ****  ****    0 ROOT 
@<TRIPOS>NORMAL
@<TRIPOS>FF_PBC
FORCE_FIELD_SETUP_FEATURE Force Field Setup information
v1.0  0 0.000000 0.000000 0.000000 0.000000 0.000000 0.000000 NONE 0 0 0 0 1 0 0 0 0 0 0 0 0
