#	Name:			PISM00838.1
#	Creating user name:	baoopengkun
#	Creation time:		Thu Dec 13 14:40:19 2018

#	Modifying user name:	baoopengkun
#	Modification time:	Thu Dec 13 14:45:40 2018

@<TRIPOS>MOLECULE
PISM00838.1
   24    25     1     1     0
SMALL
GAST_HUCK


@<TRIPOS>ATOM
      1 C1         -8.6128   15.9049   -5.5934 C.ar      1 <1>        -0.0344 
      2 C2         -9.8732   15.5489   -5.1043 C.ar      1 <1>        -0.0369 
      3 C3        -10.7775   16.5421   -4.7190 C.ar      1 <1>         0.1203 
      4 C4        -10.4181   17.8894   -4.8099 C.ar      1 <1>        -0.0369 
      5 C5         -9.1561   18.2453   -5.2953 C.ar      1 <1>        -0.0344 
      6 C6         -8.2601   17.2527   -5.7033 C.ar      1 <1>         0.0939 
      7 F7        -11.9815   16.2046   -4.2651 F         1 <1>        -0.1929 
      8 O8         -7.0138   17.6008   -6.2206 O.3       1 <1>        -0.2736 
      9 C9         -7.0516   18.0877   -7.5700 C.3       1 <1>         0.2349 
     10 C10        -7.5653   17.0169   -8.5043 C.2       1 <1>        -0.0021 
     11 C11        -6.6133   16.6457   -9.3578 C.2       1 <1>         0.0292 
     12 C12        -5.4813   17.4899   -8.9944 C.2       1 <1>         0.2494 
     13 O13        -5.6966   18.3356   -7.9941 O.3       1 <1>        -0.2315 
     14 C14        -6.6865   15.6160  -10.4520 C.3       1 <1>        -0.0323 
     15 O15        -4.4096   17.4316   -9.5723 O.2       1 <1>        -0.3691 
     16 H1         -7.9045   15.1385   -5.8909 H         1 <1>         0.0533 
     17 H2        -10.1545   14.5042   -5.0221 H         1 <1>         0.0577 
     18 H3        -11.1227   18.6549   -4.5017 H         1 <1>         0.0577 
     19 H4         -8.8702   19.2903   -5.3542 H         1 <1>         0.0533 
     20 H5         -7.6377   19.0169   -7.6606 H         1 <1>         0.1197 
     21 H6         -8.5729   16.6037   -8.4794 H         1 <1>         0.0705 
     22 H7         -6.0204   15.9016  -11.2800 H         1 <1>         0.0347 
     23 H8         -7.7145   15.5315  -10.8355 H         1 <1>         0.0347 
     24 H9         -6.3678   14.6406  -10.0559 H         1 <1>         0.0347 
@<TRIPOS>BOND
     1    2    1 ar   
     2    2    3 ar   
     3    3    4 ar   
     4    4    5 ar   
     5    5    6 ar   
     6    1    6 ar   
     7    3    7 1    
     8    6    8 1    
     9    8    9 1    
    10    9   10 1    
    11   10   11 2    
    12   11   12 1    
    13   12   13 1    
    14    9   13 1    
    15   11   14 1    
    16   12   15 2    
    17    1   16 1    
    18    2   17 1    
    19    4   18 1    
    20    5   19 1    
    21    9   20 1    
    22   10   21 1    
    23   14   22 1    
    24   14   23 1    
    25   14   24 1    
@<TRIPOS>SUBSTRUCTURE
     1 ****        2 TEMP              0 ****  ****    0 ROOT 
@<TRIPOS>NORMAL
@<TRIPOS>FF_PBC
FORCE_FIELD_SETUP_FEATURE Force Field Setup information
v1.0  0 0.000000 0.000000 0.000000 0.000000 0.000000 0.000000 NONE 0 0 0 0 1 0 0 0 0 0 0 0 0
