#	Name:			PISM00090
#	Creating user name:	baoopengkun
#	Creation time:		Thu Dec 27 16:38:33 2018

#	Modifying user name:	baoopengkun
#	Modification time:	Thu Dec 27 16:39:27 2018

@<TRIPOS>MOLECULE
PISM00090
   21    21     1     1     0
SMALL
GAST_HUCK


@<TRIPOS>ATOM
      1 O1          2.1753    5.4353  -18.6385 O.3       1 <1>        -0.2972 
      2 C2          2.2961    5.9993  -17.4328 C.2       1 <1>         0.2416 
      3 O3          3.1993    6.7989  -17.2586 O.2       1 <1>        -0.3671 
      4 C4          1.3882    5.6809  -16.3055 C.2       1 <1>         0.0160 
      5 C5          0.1208    5.2499  -16.3926 C.2       1 <1>        -0.0475 
      6 C6         -0.7493    4.9465  -15.1881 C.ar      1 <1>        -0.0328 
      7 C7         -1.7724    3.9995  -15.3205 C.ar      1 <1>        -0.0287 
      8 C8         -2.5824    3.6597  -14.2291 C.ar      1 <1>         0.1218 
      9 C9         -2.3656    4.2702  -12.9886 C.ar      1 <1>         0.1232 
     10 C10        -1.3602    5.2299  -12.8556 C.ar      1 <1>        -0.0342 
     11 C11        -0.5711    5.5837  -13.9537 C.ar      1 <1>        -0.0672 
     12 O12        -3.6103    2.7163  -14.3469 O.3       1 <1>        -0.3356 
     13 O13        -3.1459    3.9315  -11.8800 O.3       1 <1>        -0.3320 
     14 H1          1.5230    4.7515  -18.6973 H         1 <1>         0.2512 
     15 H2          1.8479    5.8315  -15.3309 H         1 <1>         0.0617 
     16 H3         -0.3407    5.0994  -17.3674 H         1 <1>         0.0733 
     17 H4         -1.9344    3.5214  -16.2808 H         1 <1>         0.0541 
     18 H5         -1.1982    5.7019  -11.8919 H         1 <1>         0.0531 
     19 H6          0.1692    6.3658  -13.8295 H         1 <1>         0.0547 
     20 H7         -3.7093    2.3448  -15.2167 H         1 <1>         0.2444 
     21 H8         -3.8015    3.2748  -12.0947 H         1 <1>         0.2473 
@<TRIPOS>BOND
     1    2    1 1    
     2    2    3 2    
     3    2    4 1    
     4    4    5 2    
     5    5    6 1    
     6    6    7 ar   
     7    7    8 ar   
     8    8    9 ar   
     9    9   10 ar   
    10   10   11 ar   
    11    6   11 ar   
    12    8   12 1    
    13    9   13 1    
    14    1   14 1    
    15    4   15 1    
    16    5   16 1    
    17    7   17 1    
    18   10   18 1    
    19   11   19 1    
    20   12   20 1    
    21   13   21 1    
@<TRIPOS>SUBSTRUCTURE
     1 ****        2 TEMP              0 ****  ****    0 ROOT 
@<TRIPOS>NORMAL
@<TRIPOS>FF_PBC
FORCE_FIELD_SETUP_FEATURE Force Field Setup information
v1.0  0 0.000000 0.000000 0.000000 0.000000 0.000000 0.000000 NONE 0 0 0 0 1 0 0 0 0 0 0 0 0
