#	Name:			PISM01035.1
#	Creating user name:	malab
#	Creation time:		Tue Jul 02 17:52:04 2019

#	Modifying user name:	malab
#	Modification time:	Tue Jul 02 17:52:24 2019

@<TRIPOS>MOLECULE
PISM01035.1
   43    44     1     1     0
SMALL
GAST_HUCK


@<TRIPOS>ATOM
      1 N1         -6.0479    1.1713   -5.0375 N.pl3     1 <1>        -0.1707 
      2 C2         -6.2457    0.1322   -5.7929 C.2       1 <1>         0.1283 
      3 N3         -5.2450   -0.6238   -5.7625 N.2       1 <1>        -0.2870 
      4 C4         -4.2328   -0.0834   -4.8986 C.2       1 <1>         0.0618 
      5 N5         -4.8062    0.9918   -4.5044 N.2       1 <1>        -0.1897 
      6 C6         -6.9695    2.2734   -4.7644 C.3       1 <1>         0.1213 
      7 C7         -6.7204    2.7792   -3.3050 C.3       1 <1>         0.0944 
      8 O8         -5.3930    3.3416   -3.2662 O.3       1 <1>        -0.3879 
      9 C9         -7.7686    3.7656   -2.6617 C.3       1 <1>        -0.0085 
     10 C10        -7.7293    3.6102   -1.1065 C.3       1 <1>        -0.0576 
     11 C11        -7.4475    5.2594   -2.9801 C.3       1 <1>        -0.0576 
     12 C12        -9.2254    3.4508   -3.1179 C.3       1 <1>        -0.0576 
     13 C13        -6.7625    3.3390   -5.8726 C.3       1 <1>         0.0132 
     14 C14        -6.7715    2.6535   -7.2464 C.ar      1 <1>        -0.0465 
     15 C15        -5.5721    2.2593   -7.8495 C.ar      1 <1>        -0.0667 
     16 C16        -5.5814    1.6171   -9.0909 C.ar      1 <1>        -0.0671 
     17 C17        -6.7917    1.3629   -9.7454 C.ar      1 <1>        -0.0528 
     18 C18        -7.9901    1.7625   -9.1453 C.ar      1 <1>        -0.0671 
     19 C19        -7.9811    2.4054   -7.9041 C.ar      1 <1>        -0.0667 
     20 C20        -6.8286    0.6559  -11.1056 C.3       1 <1>        -0.0343 
     21 H1         -7.1397   -0.0774   -6.3796 H         1 <1>         0.1361 
     22 H2         -3.2498   -0.4774   -4.6455 H         1 <1>         0.0864 
     23 H3         -7.9810    1.8484   -4.8553 H         1 <1>         0.0727 
     24 H4         -6.7259    1.8441   -2.7167 H         1 <1>         0.0633 
     25 H5         -5.0547    3.4898   -2.3900 H         1 <1>         0.2099 
     26 H6         -6.7276    3.8213   -0.7048 H         1 <1>         0.0236 
     27 H7         -8.0100    2.5889   -0.8058 H         1 <1>         0.0236 
     28 H8         -8.4334    4.3045   -0.6220 H         1 <1>         0.0236 
     29 H9         -7.4410    5.4640   -4.0560 H         1 <1>         0.0236 
     30 H10        -6.4666    5.5514   -2.5767 H         1 <1>         0.0236 
     31 H11        -8.2022    5.9188   -2.5245 H         1 <1>         0.0236 
     32 H12        -9.3691    3.6695   -4.1858 H         1 <1>         0.0236 
     33 H13        -9.9498    4.0660   -2.5622 H         1 <1>         0.0236 
     34 H14        -9.4681    2.3931   -2.9326 H         1 <1>         0.0236 
     35 H15        -5.8048    3.8593   -5.7200 H         1 <1>         0.0446 
     36 H16        -7.5664    4.0866   -5.8700 H         1 <1>         0.0446 
     37 H17        -4.6251    2.4439   -7.3517 H         1 <1>         0.0540 
     38 H18        -4.6406    1.3163   -9.5404 H         1 <1>         0.0540 
     39 H19        -8.9348    1.5725   -9.6452 H         1 <1>         0.0540 
     40 H20        -8.9206    2.7082   -7.4527 H         1 <1>         0.0540 
     41 H21        -7.3651   -0.2990  -11.0002 H         1 <1>         0.0378 
     42 H22        -5.8188    0.4523  -11.4922 H         1 <1>         0.0378 
     43 H23        -7.3607    1.2893  -11.8312 H         1 <1>         0.0378 
@<TRIPOS>BOND
     1    2    1 1    
     2    2    3 2    
     3    3    4 1    
     4    4    5 2    
     5    1    5 1    
     6    1    6 1    
     7    6    7 1    
     8    7    8 1    
     9    7    9 1    
    10    9   10 1    
    11    9   11 1    
    12    9   12 1    
    13    6   13 1    
    14   13   14 1    
    15   14   15 ar   
    16   15   16 ar   
    17   16   17 ar   
    18   17   18 ar   
    19   18   19 ar   
    20   14   19 ar   
    21   17   20 1    
    22    2   21 1    
    23    4   22 1    
    24    6   23 1    
    25    7   24 1    
    26    8   25 1    
    27   10   26 1    
    28   10   27 1    
    29   10   28 1    
    30   11   29 1    
    31   11   30 1    
    32   11   31 1    
    33   12   32 1    
    34   12   33 1    
    35   12   34 1    
    36   13   35 1    
    37   13   36 1    
    38   15   37 1    
    39   16   38 1    
    40   18   39 1    
    41   19   40 1    
    42   20   41 1    
    43   20   42 1    
    44   20   43 1    
@<TRIPOS>SUBSTRUCTURE
     1 ****        2 TEMP              0 ****  ****    0 ROOT 
@<TRIPOS>NORMAL
@<TRIPOS>FF_PBC
FORCE_FIELD_SETUP_FEATURE Force Field Setup information
v1.0  0 0.000000 0.000000 0.000000 0.000000 0.000000 0.000000 NONE 0 0 0 0 1 0 0 0 0 0 0 0 0
