#	Name:			PISM00766
#	Creating user name:	baoopengkun
#	Creation time:		Sun Dec 02 11:38:55 2018

#	Modifying user name:	baoopengkun
#	Modification time:	Sun Dec 02 12:06:50 2018

@<TRIPOS>MOLECULE
PISM00766
   40    41     1     2     0
SMALL
GAST_HUCK


@<TRIPOS>ATOM
      1 C1         -5.4117    4.6285   -1.2590 C.2       1 <1>         0.0978 
      2 C2         -6.6436    4.6741   -2.0789 C.2       1 <1>        -0.0173 
      3 C3         -7.7392    3.7211   -1.6577 C.3       1 <1>        -0.0317 
      4 C4         -6.1226    2.4324   -0.1159 C.3       1 <1>        -0.0178 
      5 C5         -5.0267    3.3764   -0.5765 C.2       1 <1>         0.0140 
      6 O6         -4.6906    5.6057   -1.1371 O.2       1 <1>        -0.4157 
      7 C7         -3.7194    3.1255   -0.4103 C.2       1 <1>         0.0746 
      8 O8         -3.3159    1.9844    0.1636 O.3       1 <1>        -0.2729 
      9 C9         -1.8887    1.8695    0.2818 C.3       1 <1>         0.2381 
     10 O10        -1.2728    1.9130   -1.0220 O.3       1 <1>        -0.2306 
     11 C11        -0.7428    0.7094   -1.1988 C.2       1 <1>         0.2495 
     12 C12        -0.9050   -0.2180   -0.0850 C.2       1 <1>         0.0293 
     13 C13        -1.5876    0.4899    0.8126 C.2       1 <1>        -0.0010 
     14 C14        -0.4039   -1.6320    0.0253 C.3       1 <1>        -0.0323 
     15 O15        -0.1550    0.4076   -2.2231 O.2       1 <1>        -0.3691 
     16 C16        -7.4946    3.1549   -0.2350 C.3       1 <1>        -0.0420 
     17 C17        -5.9550    1.9489    1.3553 C.3       1 <1>        -0.0575 
     18 C18        -6.7785    5.5028   -3.1341 C.2       1 <1>        -0.0557 
     19 C19        -5.6721    6.4599   -3.5317 C.3       1 <1>        -0.0285 
     20 C20        -8.0126    5.5620   -4.0157 C.3       1 <1>        -0.0285 
     21 H1         -8.7097    4.2420   -1.6186 H         1 <1>         0.0340 
     22 H2         -7.7977    2.8938   -2.3829 H         1 <1>         0.0340 
     23 H3         -6.1247    1.5569   -0.7866 H         1 <1>         0.0388 
     24 H4         -3.0006    3.8683   -0.7677 H         1 <1>         0.1060 
     25 H5         -1.4613    2.6417    0.9438 H         1 <1>         0.1210 
     26 H6         -1.8961    0.1275    1.7924 H         1 <1>         0.0706 
     27 H7         -1.2150   -2.3277   -0.2358 H         1 <1>         0.0347 
     28 H8         -0.0665   -1.8396    1.0518 H         1 <1>         0.0347 
     29 H9          0.4385   -1.7888   -0.6651 H         1 <1>         0.0347 
     30 H10        -7.5252    3.9880    0.4878 H         1 <1>         0.0295 
     31 H11        -8.3123    2.4573    0.0142 H         1 <1>         0.0295 
     32 H12        -5.1237    1.2407    1.4741 H         1 <1>         0.0247 
     33 H13        -6.8631    1.4284    1.6968 H         1 <1>         0.0247 
     34 H14        -5.7799    2.8122    2.0156 H         1 <1>         0.0247 
     35 H15        -5.8470    6.9184   -4.5165 H         1 <1>         0.0426 
     36 H16        -4.7051    5.9372   -3.5841 H         1 <1>         0.0426 
     37 H17        -5.6094    7.2722   -2.7921 H         1 <1>         0.0426 
     38 H18        -8.5138    6.5287   -3.8574 H         1 <1>         0.0426 
     39 H19        -8.7455    4.7621   -3.8505 H         1 <1>         0.0426 
     40 H20        -7.7130    5.4918   -5.0725 H         1 <1>         0.0426 
@<TRIPOS>BOND
     1    1    2 1    
     2    3    2 1    
     3    4    5 1    
     4   16    4 1    
     5    5    1 1    
     6    1    6 2    
     7    5    7 2    
     8    7    8 1    
     9    8    9 1    
    10    9   10 1    
    11   10   11 1    
    12   12   11 1    
    13   13   12 2    
    14    9   13 1    
    15   12   14 1    
    16   11   15 2    
    17   16    3 1    
    18    4   17 1    
    19    2   18 2    
    20   18   19 1    
    21   18   20 1    
    22    3   21 1    
    23    3   22 1    
    24    4   23 1    
    25    7   24 1    
    26    9   25 1    
    27   13   26 1    
    28   14   27 1    
    29   14   28 1    
    30   14   29 1    
    31   16   30 1    
    32   16   31 1    
    33   17   32 1    
    34   17   33 1    
    35   17   34 1    
    36   19   35 1    
    37   19   36 1    
    38   19   37 1    
    39   20   38 1    
    40   20   39 1    
    41   20   40 1    
@<TRIPOS>SUBSTRUCTURE
     1 ****       16 TEMP              0 ****  ****    0 ROOT 
@<TRIPOS>NORMAL
@<TRIPOS>FF_PBC
FORCE_FIELD_SETUP_FEATURE Force Field Setup information
v1.0  0 0.000000 0.000000 0.000000 0.000000 0.000000 0.000000 NONE 0 0 0 0 1 0 0 0 0 0 0 0 0
@<TRIPOS>RENDERING_ATTRS
ANTIALIASED_LINES 
1,2,3,4,5,6,7,8,9,10,11,12,13,14,15,16
