#	Name:			PISM00330
#	Creating user name:	14062
#	Creation time:		Mon Oct 07 17:45:20 2019

#	Modifying user name:	14062
#	Modification time:	Mon Oct 07 17:45:57 2019

@<TRIPOS>MOLECULE
PISM00330
   45    45     1     1     0
SMALL
GAST_HUCK


@<TRIPOS>ATOM
      1 C1         -8.8211  -11.0295  -21.6621 C.3       1 <1>        -0.0402 
      2 C2         -9.3189  -11.8076  -22.9217 C.3       1 <1>         0.0186 
      3 C3         -8.4356  -12.9900  -23.2078 C.2       1 <1>         0.1466 
      4 C4         -7.0201  -12.9888  -22.8134 C.2       1 <1>         0.0132 
      5 C5         -6.4632  -11.9483  -22.1814 C.2       1 <1>        -0.0667 
      6 C6         -7.2841  -10.7226  -21.8240 C.3       1 <1>         0.0370 
      7 O7         -8.8935  -13.9681  -23.7767 O.2       1 <1>        -0.3649 
      8 C8         -9.0525  -11.9386  -20.4135 C.3       1 <1>        -0.0709 
      9 C9         -9.5823   -9.6628  -21.5234 C.3       1 <1>        -0.0591 
     10 C10       -11.1296   -9.6748  -21.3075 C.3       1 <1>        -0.0567 
     11 C11       -11.5883   -9.8167  -19.8287 C.3       1 <1>        -0.0653 
     12 O12        -7.0422   -9.7816  -22.8855 O.3       1 <1>        -0.4654 
     13 C13        -6.7369  -10.1168  -20.5451 C.2       1 <1>        -0.0861 
     14 C14        -6.2664   -8.8662  -20.4441 C.2       1 <1>        -0.0144 
     15 H1        -10.3369  -12.1946  -22.7705 H         1 <1>         0.0475 
     16 H2         -9.3442  -11.1762  -23.8212 H         1 <1>         0.0475 
     17 H3         -6.4384  -13.8739  -23.0679 H         1 <1>         0.0970 
     18 H4        -10.0459  -12.4093  -20.4370 H         1 <1>         0.0221 
     19 H5         -8.9747  -11.3623  -19.4797 H         1 <1>         0.0221 
     20 H6         -8.3154  -12.7545  -20.3754 H         1 <1>         0.0221 
     21 C21        -4.9927  -11.9274  -21.8219 C.3       1 <1>        -0.0367 
     22 H7         -9.3968   -9.1034  -22.4554 H         1 <1>         0.0257 
     23 H8         -9.1401   -9.0693  -20.7086 H         1 <1>         0.0257 
     24 H9        -11.6204  -10.4366  -21.9296 H         1 <1>         0.0262 
     25 H10       -11.5156   -8.6939  -21.6385 H         1 <1>         0.0262 
     26 H11       -12.6769   -9.6596  -19.7646 H         1 <1>         0.0230 
     27 H12       -11.0959   -9.0614  -19.1965 H         1 <1>         0.0230 
     28 H13       -11.3788  -10.8091  -19.4130 H         1 <1>         0.0230 
     29 C29        -5.7702   -8.3100  -19.1673 C.2       1 <1>         0.0276 
     30 C30        -6.6152   -8.5136  -17.9291 C.3       1 <1>        -0.0121 
     31 C31        -4.6147   -7.6315  -19.0833 C.2       1 <1>         0.0681 
     32 H14        -7.2503  -10.1056  -23.7543 H         1 <1>         0.1803 
     33 H15        -6.7136  -10.7375  -19.6503 H         1 <1>         0.0537 
     34 H16        -6.2451   -8.2153  -21.3180 H         1 <1>         0.1123 
     35 C35        -3.6702   -7.3795  -20.1983 C.2       1 <1>         0.2775 
     36 O36        -3.8010   -7.9498  -21.2665 O.2       1 <1>        -0.3439 
     37 O37        -2.6426   -6.5325  -20.0724 O.3       1 <1>        -0.2912 
     38 H17        -4.4304  -12.7227  -22.3340 H         1 <1>         0.0416 
     39 H18        -4.8608  -12.0613  -20.7382 H         1 <1>         0.0416 
     40 H19        -4.5567  -10.9608  -22.1182 H         1 <1>         0.0416 
     41 H20        -7.6444   -8.8020  -18.1947 H         1 <1>         0.0431 
     42 H21        -6.6709   -7.5900  -17.3324 H         1 <1>         0.0431 
     43 H22        -6.1743   -9.3111  -17.3123 H         1 <1>         0.0431 
     44 H23        -4.3350   -7.2353  -18.1080 H         1 <1>         0.1013 
     45 H24        -2.5745   -6.1009  -19.2303 H         1 <1>         0.2519 
@<TRIPOS>BOND
     1    3    2 1    
     2    2    1 1    
     3    3    4 1    
     4    4    5 2    
     5    5    6 1    
     6    1    6 1    
     7    3    7 2    
     8    1    8 1    
     9    1    9 1    
    10    9   10 1    
    11   10   11 1    
    12    6   12 1    
    13    6   13 1    
    14   13   14 2    
    15    2   15 1    
    16    2   16 1    
    17    4   17 1    
    18    8   18 1    
    19    8   19 1    
    20    8   20 1    
    21    5   21 1    
    22    9   22 1    
    23    9   23 1    
    24   10   24 1    
    25   10   25 1    
    26   11   26 1    
    27   11   27 1    
    28   11   28 1    
    29   14   29 1    
    30   29   30 1    
    31   29   31 2    
    32   12   32 1    
    33   13   33 1    
    34   14   34 1    
    35   31   35 1    
    36   35   36 2    
    37   35   37 1    
    38   21   38 1    
    39   21   39 1    
    40   21   40 1    
    41   30   41 1    
    42   30   42 1    
    43   30   43 1    
    44   31   44 1    
    45   37   45 1    
@<TRIPOS>SUBSTRUCTURE
     1 ****        1 TEMP              0 ****  ****    0 ROOT 
@<TRIPOS>NORMAL
@<TRIPOS>FF_PBC
FORCE_FIELD_SETUP_FEATURE Force Field Setup information
v1.0  0 0.000000 0.000000 0.000000 0.000000 0.000000 0.000000 NONE 0 0 0 0 1 0 0 0 0 0 0 0 0
