#	Name:			PISM00510
#	Creating user name:	malab
#	Creation time:		Thu Apr 04 11:48:21 2019

#	Modifying user name:	malab
#	Modification time:	Thu Apr 04 11:57:03 2019

@<TRIPOS>MOLECULE
PISM00510
  107   115     1     1     0
SMALL
GAST_HUCK


@<TRIPOS>ATOM
      1 C1         16.6716   13.1331  -10.7374 C.3       1 <1>         0.1431 
      2 C2         15.7874   11.9321  -10.9051 C.2       1 <1>         0.0140 
      3 C3         15.1422   11.3916   -9.8678 C.2       1 <1>        -0.0529 
      4 C4         15.2887   11.9241   -8.4526 C.3       1 <1>         0.0635 
      5 C5         16.5637   12.7464   -8.2183 C.3       1 <1>        -0.0084 
      6 C6         16.4329   13.7872   -9.3480 C.3       1 <1>         0.1071 
      7 C7         15.4732   10.7369   -7.4525 C.3       1 <1>        -0.0406 
      8 C8         16.9058   10.8867   -6.8488 C.3       1 <1>        -0.0138 
      9 C9         17.6488   11.6646   -7.9871 C.3       1 <1>         0.0486 
     10 C10        14.4103   10.3695   -6.3916 C.3       1 <1>        -0.0653 
     11 C11        17.3881    9.4722   -6.4329 C.3       1 <1>        -0.0465 
     12 C12        16.4329    9.1994   -5.2379 C.3       1 <1>         0.0482 
     13 C13        14.9309    9.0948   -5.6496 C.3       1 <1>        -0.0563 
     14 C14        16.5982   10.4990   -4.5152 C.2       1 <1>        -0.0328 
     15 C15        16.9270   11.6170   -5.4594 C.3       1 <1>        -0.0133 
     16 C16        16.4676   10.6363   -3.1915 C.2       1 <1>        -0.0406 
     17 O17        16.8665    8.0942   -4.4325 O.3       1 <1>        -0.4347 
     18 O18        14.3517   13.0022   -8.4068 O.3       1 <1>        -0.3321 
     19 C19        17.3109   15.0539   -9.1335 C.3       1 <1>        -0.0456 
     20 C20        14.9516   14.0257   -9.0612 C.2       1 <1>         0.2558 
     21 O21        14.3714   15.0631   -9.3331 O.2       1 <1>        -0.3128 
     22 O22        16.3321   14.0000  -11.8348 O.3       1 <1>        -0.3589 
     23 C23        18.9930   12.2057   -7.5779 C.2       1 <1>         0.1788 
     24 O24        19.0963   13.3901   -7.3095 O.2       1 <1>        -0.3968 
     25 N25        20.0441   11.3605   -7.5089 N.am      1 <1>        -0.2845 
     26 C26        21.3183   11.8367   -6.9754 C.3       1 <1>         0.0543 
     27 C27        21.1849   12.0064   -5.4432 C.3       1 <1>         0.0678 
     28 O28        22.4489   12.4426   -4.9097 O.3       1 <1>        -0.3755 
     29 C29        22.4114   12.6743   -3.4864 C.3       1 <1>         0.0711 
     30 C30        23.8152   13.1353   -3.0428 C.3       1 <1>         0.0711 
     31 O31        23.8131   13.3466   -1.6160 O.3       1 <1>        -0.3755 
     32 C32        25.1056   13.7283   -1.1059 C.3       1 <1>         0.0678 
     33 C33        25.0279   13.8982    0.4291 C.3       1 <1>         0.0539 
     34 N34        26.3998   13.9969    0.9207 N.am      1 <1>        -0.2832 
     35 C35        27.0664   15.1744    0.9178 C.2       1 <1>         0.2109 
     36 O36        26.4897   16.2015    0.6002 O.2       1 <1>        -0.3824 
     37 C37        29.1881   16.5032    1.0609 C.ar      1 <1>        -0.0301 
     38 C38        28.5471   15.2709    1.2516 C.ar      1 <1>         0.0777 
     39 C39        29.3403   14.2061    1.7051 C.ar      1 <1>         0.0979 
     40 C40        30.6926   14.2098    1.3440 C.ar      1 <1>         0.0300 
     41 C41        31.3436   15.4238    1.1198 C.ar      1 <1>        -0.0346 
     42 C42        30.5838   16.5916    1.0374 C.ar      1 <1>        -0.0443 
     43 C43        28.8316   13.0692    2.5652 C.2       1 <1>         0.2695 
     44 O44        27.6337   12.9292    2.7494 O.2       1 <1>        -0.3526 
     45 O45        29.6866   12.2194    3.1327 O.3       1 <1>        -0.2924 
     46 C46        31.4356   12.9086    1.1501 C.2       1 <1>         0.0264 
     47 C47        31.2739   12.2225    0.0112 C.2       1 <1>         0.0396 
     48 C48        30.4003   12.7146   -1.0835 C.2       1 <1>        -0.0500 
     49 C49        30.2626   12.0201   -2.2181 C.2       1 <1>        -0.0373 
     50 C50        30.9776   10.7493   -2.3919 C.2       1 <1>         0.0666 
     51 C51        31.8439   10.2509   -1.3139 C.2       1 <1>        -0.0198 
     52 C52        31.9880   10.9375   -0.1755 C.2       1 <1>         0.1275 
     53 O53        32.7821   10.4420    0.7811 O.3       1 <1>        -0.2389 
     54 C54        32.9633   11.1227    1.9851 C.ar      1 <1>         0.1462 
     55 C55        32.3550   12.3597    2.2165 C.ar      1 <1>         0.0434 
     56 C56        32.5994   13.0430    3.4128 C.ar      1 <1>        -0.0500 
     57 C57        33.4089   12.4653    4.3966 C.ar      1 <1>        -0.0280 
     58 C58        33.9717   11.1997    4.1900 C.ar      1 <1>         0.0948 
     59 C59        33.7660   10.5486    2.9725 C.ar      1 <1>         0.0164 
     60 O60        30.8490   10.1148   -3.4256 O.2       1 <1>        -0.4441 
     61 O61        34.7376   10.5745    5.1766 O.3       1 <1>        -0.3270 
     62 H1         17.7229   12.8059  -10.8203 H         1 <1>         0.1020 
     63 H2         15.6730   11.5165  -11.9074 H         1 <1>         0.1556 
     64 H3         14.4741   10.5489  -10.0541 H         1 <1>         0.0491 
     65 H4         16.5021   13.3446   -7.2954 H         1 <1>         0.0204 
     66 H5         15.5111    9.8322   -8.0824 H         1 <1>         0.0190 
     67 H6         17.7672   11.0303   -8.8792 H         1 <1>         0.0535 
     68 H7         13.4438   10.1586   -6.8787 H         1 <1>         0.0249 
     69 H8         14.2461   11.2037   -5.6943 H         1 <1>         0.0249 
     70 H9         18.4303    9.4995   -6.0754 H         1 <1>         0.0176 
     71 H10        17.3181    8.7025   -7.2168 H         1 <1>         0.0176 
     72 H11        14.3191    8.9228   -4.7492 H         1 <1>         0.0167 
     73 H12        14.8237    8.2138   -6.3028 H         1 <1>         0.0167 
     74 H13        17.9358   11.9746   -5.2077 H         1 <1>         0.0432 
     75 H14        16.2101   12.4361   -5.3084 H         1 <1>         0.0432 
     76 H15        16.5982   11.6061   -2.7137 H         1 <1>         0.1257 
     77 H16        16.2273    9.7708   -2.5749 H         1 <1>         0.1257 
     78 H17        16.8213    7.2757   -4.9145 H         1 <1>         0.1919 
     79 H18        18.3684   14.8220   -9.3292 H         1 <1>         0.0225 
     80 H19        17.2213   15.4365   -8.1054 H         1 <1>         0.0225 
     81 H20        16.9957   15.8621   -9.8088 H         1 <1>         0.0225 
     82 H21        16.8764   14.7774  -11.9038 H         1 <1>         0.2177 
     83 H22        19.9585   10.3958   -7.7637 H         1 <1>         0.1851 
     84 H23        21.5993   12.8007   -7.4306 H         1 <1>         0.0543 
     85 H24        22.1291   11.1184   -7.1834 H         1 <1>         0.0543 
     86 H25        20.8871   11.0413   -5.0017 H         1 <1>         0.0580 
     87 H26        20.4042   12.7524   -5.2271 H         1 <1>         0.0580 
     88 H27        22.1518   11.7538   -2.9380 H         1 <1>         0.0583 
     89 H28        21.6840   13.4610   -3.2272 H         1 <1>         0.0583 
     90 H29        24.0676   14.0663   -3.5743 H         1 <1>         0.0583 
     91 H30        24.5362   12.3544   -3.3346 H         1 <1>         0.0583 
     92 H31        25.4520   14.6769   -1.5483 H         1 <1>         0.0580 
     93 H32        25.8429   12.9395   -1.3314 H         1 <1>         0.0580 
     94 H33        24.5360   13.0076    0.8565 H         1 <1>         0.0542 
     95 H34        24.4191   14.7786    0.6942 H         1 <1>         0.0542 
     96 H35        26.8377   13.1401    1.1905 H         1 <1>         0.1846 
     97 H36        28.6041   17.4054    0.9224 H         1 <1>         0.0735 
     98 H37        32.4214   15.4549    1.0064 H         1 <1>         0.0732 
     99 H38        31.0715   17.5571    0.9451 H         1 <1>         0.0680 
    100 H39        29.2391   11.5621    3.6552 H         1 <1>         0.2523 
    101 H40        29.8474   13.6520   -1.0056 H         1 <1>         0.0660 
    102 H41        29.6255   12.3755   -3.0293 H         1 <1>         0.0517 
    103 H42        32.3713    9.3072   -1.4518 H         1 <1>         0.0191 
    104 H43        32.1627   14.0203    3.5865 H         1 <1>         0.0652 
    105 H44        33.5966   13.0078    5.3187 H         1 <1>         0.0527 
    106 H45        34.2326    9.5859    2.7929 H         1 <1>         0.0506 
    107 H46        34.6469   10.9553    6.0437 H         1 <1>         0.2529 
@<TRIPOS>BOND
     1    1    2 1    
     2    3    2 2    
     3    4    3 1    
     4    5    4 1    
     5    5    6 1    
     6    6    1 1    
     7    4    7 1    
     8    8    7 1    
     9    9    8 1    
    10    9    5 1    
    11    7   10 1    
    12    8   11 1    
    13   11   12 1    
    14   12   13 1    
    15   10   13 1    
    16   14   12 1    
    17    8   15 1    
    18   15   14 1    
    19   14   16 2    
    20   12   17 1    
    21    4   18 1    
    22    6   19 1    
    23    6   20 1    
    24   20   21 2    
    25   20   18 1    
    26    1   22 1    
    27   23    9 1    
    28   23   24 2    
    29   25   23 am   
    30   26   25 1    
    31   27   26 1    
    32   28   27 1    
    33   29   28 1    
    34   30   29 1    
    35   31   30 1    
    36   32   31 1    
    37   33   32 1    
    38   34   33 1    
    39   35   34 am   
    40   35   36 2    
    41   38   35 1    
    42   38   37 ar   
    43   38   39 ar   
    44   39   40 ar   
    45   40   41 ar   
    46   42   41 ar   
    47   37   42 ar   
    48   39   43 1    
    49   43   44 2    
    50   43   45 1    
    51   40   46 1    
    52   46   47 2    
    53   47   48 1    
    54   48   49 2    
    55   49   50 1    
    56   51   50 1    
    57   52   51 2    
    58   47   52 1    
    59   52   53 1    
    60   54   53 1    
    61   55   54 ar   
    62   46   55 1    
    63   55   56 ar   
    64   56   57 ar   
    65   57   58 ar   
    66   59   58 ar   
    67   54   59 ar   
    68   50   60 2    
    69   58   61 1    
    70    1   62 1    
    71    2   63 1    
    72    3   64 1    
    73    5   65 1    
    74    7   66 1    
    75    9   67 1    
    76   10   68 1    
    77   10   69 1    
    78   11   70 1    
    79   11   71 1    
    80   13   72 1    
    81   13   73 1    
    82   15   74 1    
    83   15   75 1    
    84   16   76 1    
    85   16   77 1    
    86   17   78 1    
    87   19   79 1    
    88   19   80 1    
    89   19   81 1    
    90   22   82 1    
    91   25   83 1    
    92   26   84 1    
    93   26   85 1    
    94   27   86 1    
    95   27   87 1    
    96   29   88 1    
    97   29   89 1    
    98   30   90 1    
    99   30   91 1    
   100   32   92 1    
   101   32   93 1    
   102   33   94 1    
   103   33   95 1    
   104   34   96 1    
   105   37   97 1    
   106   41   98 1    
   107   42   99 1    
   108   45  100 1    
   109   48  101 1    
   110   49  102 1    
   111   51  103 1    
   112   56  104 1    
   113   57  105 1    
   114   59  106 1    
   115   61  107 1    
@<TRIPOS>SUBSTRUCTURE
     1 ****       37 TEMP              0 ****  ****    0 ROOT 
@<TRIPOS>NORMAL
@<TRIPOS>FF_PBC
FORCE_FIELD_SETUP_FEATURE Force Field Setup information
v1.0  0 0.000000 0.000000 0.000000 0.000000 0.000000 0.000000 NONE 0 0 0 0 1 0 0 0 0 0 0 0 0
