#	Name:			PISM00863.1
#	Creating user name:	baoopengkun
#	Creation time:		Thu Dec 13 15:12:19 2018

#	Modifying user name:	baoopengkun
#	Modification time:	Thu Dec 13 22:43:40 2018

@<TRIPOS>MOLECULE
PISM00863.1
   24    25     1     1     0
SMALL
GAST_HUCK


@<TRIPOS>ATOM
      1 Br1         0.1104    1.3298    1.8179 Br        1 <1>        -0.0572 
      2 C2          2.8394    0.6189    1.8112 C.ar      1 <1>        -0.0582 
      3 C3          4.1749    0.7279    1.4136 C.ar      1 <1>        -0.0671 
      4 C4          4.5442    1.6855    0.4648 C.ar      1 <1>        -0.0582 
      5 C5          3.5758    2.5221   -0.0976 C.ar      1 <1>         0.0437 
      6 C6          2.2343    2.3906    0.2757 C.ar      1 <1>         0.1182 
      7 C7          1.8706    1.4580    1.2530 C.ar      1 <1>         0.0437 
      8 Br8         4.0741    3.8051   -1.3391 Br        1 <1>        -0.0572 
      9 O9          1.2654    3.1938   -0.3265 O.3       1 <1>        -0.2664 
     10 C10         0.5600    2.5790   -1.4159 C.3       1 <1>         0.2373 
     11 O11        -0.3014    3.5833   -1.9867 O.3       1 <1>        -0.2311 
     12 C12         0.1672    3.7930   -3.2107 C.2       1 <1>         0.2495 
     13 C13         1.2922    2.9528   -3.6045 C.2       1 <1>         0.0292 
     14 C14         1.5119    2.2027   -2.5271 C.2       1 <1>        -0.0016 
     15 C15         2.0211    2.9259   -4.9197 C.3       1 <1>        -0.0323 
     16 O16        -0.3215    4.6256   -3.9550 O.2       1 <1>        -0.3691 
     17 H1          2.5545   -0.1179    2.5558 H         1 <1>         0.0640 
     18 H2          4.9253    0.0705    1.8428 H         1 <1>         0.0538 
     19 H3          5.5831    1.7794    0.1648 H         1 <1>         0.0640 
     20 H4         -0.0419    1.7142   -1.0939 H         1 <1>         0.1202 
     21 H5          2.2780    1.4316   -2.4555 H         1 <1>         0.0705 
     22 H6          2.1672    1.8867   -5.2504 H         1 <1>         0.0347 
     23 H7          3.0024    3.4091   -4.8022 H         1 <1>         0.0347 
     24 H8          1.4448    3.4663   -5.6856 H         1 <1>         0.0347 
@<TRIPOS>BOND
     1    7    1 1    
     2    2    3 ar   
     3    3    4 ar   
     4    4    5 ar   
     5    5    6 ar   
     6    6    7 ar   
     7    2    7 ar   
     8    5    8 1    
     9    6    9 1    
    10    9   10 1    
    11   10   11 1    
    12   11   12 1    
    13   12   13 1    
    14   13   14 2    
    15   10   14 1    
    16   13   15 1    
    17   12   16 2    
    18    2   17 1    
    19    3   18 1    
    20    4   19 1    
    21   10   20 1    
    22   14   21 1    
    23   15   22 1    
    24   15   23 1    
    25   15   24 1    
@<TRIPOS>SUBSTRUCTURE
     1 ****        2 TEMP              0 ****  ****    0 ROOT 
@<TRIPOS>NORMAL
@<TRIPOS>FF_PBC
FORCE_FIELD_SETUP_FEATURE Force Field Setup information
v1.0  0 0.000000 0.000000 0.000000 0.000000 0.000000 0.000000 NONE 0 0 0 0 1 0 0 0 0 0 0 0 0
