#	Name:			PISM00981
#	Creating user name:	baoopengkun
#	Creation time:		Fri Jan 11 21:06:41 2019

#	Modifying user name:	baoopengkun
#	Modification time:	Fri Jan 11 21:09:11 2019

@<TRIPOS>MOLECULE
PISM00981
   51    54     1     1     0
SMALL
GAST_HUCK


@<TRIPOS>ATOM
      1 C1          1.8691    4.9141   -1.2034 C.3       1 <1>        -0.0375 
      2 C2          2.0840    3.6919   -0.2728 C.3       1 <1>         0.0690 
      3 C3          1.2562    3.8211    1.0341 C.3       1 <1>         0.0273 
      4 N4          1.5577    2.7088    1.9720 N.3       1 <1>        -0.2725 
      5 C5          3.0161    2.6593    2.2423 C.3       1 <1>         0.0273 
      6 C6          3.7773    2.4879    0.9029 C.3       1 <1>         0.0690 
      7 O7          3.4851    3.6008    0.0381 O.3       1 <1>        -0.3714 
      8 C8          5.3100    2.4457    1.1131 C.3       1 <1>        -0.0375 
      9 C9          0.6963    2.6839    3.1834 C.3       1 <1>         0.1196 
     10 N10         0.6981    1.3987    3.8737 N.pl3     1 <1>        -0.1546 
     11 N11         1.5312    0.3612    3.6305 N.2       1 <1>        -0.1732 
     12 C12         1.1911   -0.5426    4.4419 C.2       1 <1>         0.1837 
     13 N13         0.1876   -0.1820    5.1780 N.pl3     1 <1>        -0.1592 
     14 C14        -0.1304    1.0326    4.8221 C.2       1 <1>         0.2116 
     15 S15        -1.4019    1.9910    5.4545 S.2       1 <1>        -0.2782 
     16 C16        -0.4415   -0.9274    6.1186 C.ar      1 <1>         0.0907 
     17 C17        -0.6792   -0.4147    7.3993 C.ar      1 <1>        -0.0197 
     18 C18        -1.3519   -1.1815    8.3548 C.ar      1 <1>         0.0663 
     19 C19        -1.7452   -2.4885    8.0540 C.ar      1 <1>         0.1360 
     20 C20        -1.4858   -3.0145    6.7864 C.ar      1 <1>        -0.0348 
     21 C21        -0.8591   -2.2283    5.8158 C.ar      1 <1>        -0.0334 
     22 Cl22       -1.7022   -0.5066    9.9332 Cl        1 <1>        -0.0746 
     23 F23        -2.3635   -3.2344    8.9672 F         1 <1>        -0.1908 
     24 C24         1.9303   -1.8641    4.4911 C.ar      1 <1>         0.0423 
     25 C25         2.4092   -2.4428    3.3090 C.ar      1 <1>         0.0534 
     26 C26         3.0795   -3.6689    3.3465 C.ar      1 <1>        -0.0328 
     27 C27         3.2670   -4.3305    4.5620 C.ar      1 <1>         0.0414 
     28 C28         2.8001   -3.7536    5.7445 C.ar      1 <1>        -0.0466 
     29 C29         2.1543   -2.5153    5.7096 C.ar      1 <1>        -0.0485 
     30 Cl30        2.1790   -1.6565    1.7603 Cl        1 <1>        -0.0686 
     31 Cl31        4.0843   -5.8788    4.6049 Cl        1 <1>        -0.0700 
     32 H1          2.2109    5.8391   -0.7143 H         1 <1>         0.0255 
     33 H2          0.8038    5.0235   -1.4592 H         1 <1>         0.0255 
     34 H3          2.4421    4.7849   -2.1350 H         1 <1>         0.0255 
     35 H4          1.7692    2.7846   -0.8178 H         1 <1>         0.0606 
     36 H5          0.1903    3.8191    0.7586 H         1 <1>         0.0453 
     37 H6          1.4881    4.7832    1.5185 H         1 <1>         0.0453 
     38 H7          3.2822    1.8208    2.9011 H         1 <1>         0.0453 
     39 H8          3.3455    3.5899    2.7322 H         1 <1>         0.0453 
     40 H9          3.4680    1.5385    0.4312 H         1 <1>         0.0606 
     41 H10         5.5912    1.6046    1.7649 H         1 <1>         0.0255 
     42 H11         5.6591    3.3836    1.5704 H         1 <1>         0.0255 
     43 H12         5.8114    2.3225    0.1404 H         1 <1>         0.0255 
     44 H13        -0.3476    2.8944    2.9017 H         1 <1>         0.0770 
     45 H14         1.0241    3.4604    3.8911 H         1 <1>         0.0770 
     46 H15        -0.3381    0.5807    7.6632 H         1 <1>         0.0553 
     47 H16        -1.7761   -4.0351    6.5620 H         1 <1>         0.0580 
     48 H17        -0.7008   -2.6321    4.8215 H         1 <1>         0.0550 
     49 H18         3.4540   -4.1114    2.4305 H         1 <1>         0.0630 
     50 H19         2.9416   -4.2677    6.6912 H         1 <1>         0.0625 
     51 H20         1.8390   -2.0609    6.6422 H         1 <1>         0.0630 
@<TRIPOS>BOND
     1    2    1 1    
     2    2    3 1    
     3    3    4 1    
     4    4    5 1    
     5    5    6 1    
     6    6    7 1    
     7    2    7 1    
     8    6    8 1    
     9    4    9 1    
    10    9   10 1    
    11   10   11 1    
    12   11   12 2    
    13   12   13 1    
    14   13   14 1    
    15   10   14 1    
    16   14   15 2    
    17   13   16 1    
    18   16   17 ar   
    19   17   18 ar   
    20   18   19 ar   
    21   19   20 ar   
    22   20   21 ar   
    23   16   21 ar   
    24   18   22 1    
    25   19   23 1    
    26   12   24 1    
    27   24   25 ar   
    28   25   26 ar   
    29   26   27 ar   
    30   27   28 ar   
    31   28   29 ar   
    32   24   29 ar   
    33   25   30 1    
    34   27   31 1    
    35    1   32 1    
    36    1   33 1    
    37    1   34 1    
    38    2   35 1    
    39    3   36 1    
    40    3   37 1    
    41    5   38 1    
    42    5   39 1    
    43    6   40 1    
    44    8   41 1    
    45    8   42 1    
    46    8   43 1    
    47    9   44 1    
    48    9   45 1    
    49   17   46 1    
    50   20   47 1    
    51   21   48 1    
    52   26   49 1    
    53   28   50 1    
    54   29   51 1    
@<TRIPOS>SUBSTRUCTURE
     1 ****        2 TEMP              0 ****  ****    0 ROOT 
@<TRIPOS>NORMAL
@<TRIPOS>FF_PBC
FORCE_FIELD_SETUP_FEATURE Force Field Setup information
v1.0  0 0.000000 0.000000 0.000000 0.000000 0.000000 0.000000 NONE 0 0 0 0 1 0 0 0 0 0 0 0 0
