#	Name:			PISM00136
#	Creating user name:	malab
#	Creation time:		Mon Apr 08 23:44:52 2019

#	Modifying user name:	malab
#	Modification time:	Mon Apr 08 23:46:12 2019

@<TRIPOS>MOLECULE
PISM00136
   97   102     1     1     0
SMALL
GAST_HUCK


@<TRIPOS>ATOM
      1 C1         27.1678    7.0963    1.6923 C.ar      1 <1>        -0.0575 
      2 C2         26.9239    5.9702    2.4839 C.ar      1 <1>        -0.0567 
      3 C3         27.9711    5.1012    2.8013 C.ar      1 <1>        -0.0414 
      4 C4         29.2547    5.3484    2.3026 C.ar      1 <1>         0.0643 
      5 C5         29.4824    6.4265    1.4468 C.ar      1 <1>         0.0169 
      6 C6         28.4515    7.3390    1.1949 C.ar      1 <1>        -0.0479 
      7 C7         30.4397    4.4850    2.6680 C.2       1 <1>         0.2403 
      8 O8         30.2718    3.5690    3.4579 O.2       1 <1>        -0.3805 
      9 N9         31.6051    4.7479    2.1349 N.pl3     1 <1>        -0.1630 
     10 N10        31.7892    5.7505    1.2403 N.2       1 <1>        -0.1772 
     11 C11        30.8689    6.5411    0.8526 C.2       1 <1>         0.0786 
     12 C12        32.7626    3.9322    2.4889 C.3       1 <1>         0.0567 
     13 C13        31.2126    7.5687   -0.2027 C.ar      1 <1>        -0.0179 
     14 C14        30.3762    7.7828   -1.3026 C.ar      1 <1>        -0.0673 
     15 C15        30.6799    8.7825   -2.2303 C.ar      1 <1>        -0.0371 
     16 C16        31.8321    9.5599   -2.0727 C.ar      1 <1>         0.0980 
     17 C17        32.7165    9.2923   -1.0215 C.ar      1 <1>        -0.0118 
     18 C18        32.3946    8.3056   -0.0832 C.ar      1 <1>        -0.0592 
     19 O19        32.1109   10.6013   -2.9603 O.3       1 <1>        -0.2999 
     20 C20        31.1750   11.6944   -2.9692 C.3       1 <1>         0.1581 
     21 C21        31.7306   12.8035   -3.8314 C.2       1 <1>         0.2092 
     22 O22        32.6312   12.4951   -4.5966 O.2       1 <1>        -0.3939 
     23 N23        31.2526   14.0777   -3.7606 N.am      1 <1>        -0.2710 
     24 C24        30.1245   14.4049   -2.8826 C.3       1 <1>         0.0339 
     25 C25        29.4266   15.6838   -3.4090 C.3       1 <1>        -0.0325 
     26 C26        30.4078   16.8879   -3.4514 C.3       1 <1>        -0.0494 
     27 C27        31.8662   16.4378   -3.7473 C.3       1 <1>        -0.0325 
     28 C28        31.8972   15.1218   -4.5633 C.3       1 <1>         0.0339 
     29 C29        34.0310   10.0761   -0.8940 C.3       1 <1>        -0.0200 
     30 C30        33.8092   11.3331   -0.0147 C.3       1 <1>        -0.0357 
     31 C31        35.1101   12.1634    0.1201 C.3       1 <1>        -0.0047 
     32 S32        34.7553   13.6324    1.1414 S.3       1 <1>        -0.1580 
     33 C33        36.2291   14.6709    0.8586 C.3       1 <1>         0.0216 
     34 C34        37.4829   14.0754    1.5446 C.3       1 <1>         0.0857 
     35 O35        38.5611   15.0140    1.3539 O.3       1 <1>        -0.2760 
     36 C36        39.7599   14.7068    1.8864 C.2       1 <1>         0.2337 
     37 O37        40.6739   15.4963    1.7085 O.2       1 <1>        -0.3704 
     38 C38        39.9995   13.4368    2.6830 C.3       1 <1>         0.0487 
     39 C39        41.4671   13.3491    3.1901 C.3       1 <1>        -0.0347 
     40 C40        41.7217   12.0525    4.0121 C.3       1 <1>        -0.0498 
     41 C41        43.2057   11.8546    4.4490 C.3       1 <1>        -0.0388 
     42 C42        43.5927   12.5324    5.7994 C.3       1 <1>         0.0302 
     43 S43        43.3772   14.3364    5.8241 S.3       1 <1>        -0.1527 
     44 C44        44.9049   14.6180    4.8954 C.3       1 <1>         0.0190 
     45 C45        45.8883   13.5979    5.5156 C.3       1 <1>         0.0750 
     46 C46        45.1052   12.3963    6.1321 C.3       1 <1>         0.0775 
     47 N47        45.7515   11.2573    5.4972 N.am      1 <1>        -0.2668 
     48 C48        46.6535   11.6127    4.5710 C.2       1 <1>         0.2580 
     49 N49        46.7381   12.9490    4.5311 N.am      1 <1>        -0.2671 
     50 O50        47.2973   10.8423    3.8772 O.2       1 <1>        -0.4008 
     51 H51        45.2559   12.3633    7.2254 H         1 <1>         0.0587 
     52 H52        46.5156   14.0809    6.2853 H         1 <1>         0.0584 
     53 H1         26.3590    7.7842    1.4653 H         1 <1>         0.0650 
     54 H2         25.9225    5.7731    2.8542 H         1 <1>         0.0625 
     55 H3         27.7831    4.2400    3.4342 H         1 <1>         0.0667 
     56 H4         28.6338    8.2423    0.6242 H         1 <1>         0.0631 
     57 H5         33.6582    4.2760    1.9486 H         1 <1>         0.0557 
     58 H6         32.5793    2.8792    2.2242 H         1 <1>         0.0557 
     59 H7         32.9584    4.0059    3.5699 H         1 <1>         0.0557 
     60 H8         29.4929    7.1683   -1.4449 H         1 <1>         0.0544 
     61 H9         30.0199    8.9472   -3.0752 H         1 <1>         0.0529 
     62 H10        33.0632    8.1112    0.7491 H         1 <1>         0.0531 
     63 H11        31.0376   12.0480   -1.9360 H         1 <1>         0.0858 
     64 H12        30.2080   11.3660   -3.3782 H         1 <1>         0.0858 
     65 H13        30.4857   14.5719   -1.8554 H         1 <1>         0.0522 
     66 H14        29.3631   13.6089   -2.8692 H         1 <1>         0.0522 
     67 H15        28.5472   15.9340   -2.7914 H         1 <1>         0.0285 
     68 H16        29.0668   15.4646   -4.4289 H         1 <1>         0.0285 
     69 H17        30.3930   17.4246   -2.4874 H         1 <1>         0.0267 
     70 H18        30.0607   17.5922   -4.2268 H         1 <1>         0.0267 
     71 H19        32.3919   16.2389   -2.7975 H         1 <1>         0.0285 
     72 H20        32.4125   17.2398   -4.2722 H         1 <1>         0.0285 
     73 H21        32.9533   14.8917   -4.7826 H         1 <1>         0.0522 
     74 H22        31.3655   15.2464   -5.5196 H         1 <1>         0.0522 
     75 H23        34.3906   10.3716   -1.8924 H         1 <1>         0.0404 
     76 H24        34.8041    9.4348   -0.4410 H         1 <1>         0.0404 
     77 H25        33.4641   11.0235    0.9857 H         1 <1>         0.0293 
     78 H26        33.0305   11.9654   -0.4690 H         1 <1>         0.0293 
     79 H27        35.4583   12.4866   -0.8733 H         1 <1>         0.0378 
     80 H28        35.8944   11.5596    0.6011 H         1 <1>         0.0378 
     81 H29        36.0181   15.6632    1.2870 H         1 <1>         0.0402 
     82 H30        36.3975   14.7884   -0.2234 H         1 <1>         0.0402 
     83 H31        37.7174   13.1078    1.0765 H         1 <1>         0.0621 
     84 H32        37.2491   13.9333    2.6115 H         1 <1>         0.0621 
     85 H33        39.7987   12.5564    2.0538 H         1 <1>         0.0518 
     86 H34        39.3382   13.4117    3.5628 H         1 <1>         0.0518 
     87 H35        41.6652   14.2405    3.8000 H         1 <1>         0.0291 
     88 H36        42.1464   13.3669    2.3219 H         1 <1>         0.0291 
     89 H37        41.4415   11.2077    3.3595 H         1 <1>         0.0267 
     90 H38        41.0643   12.0251    4.8960 H         1 <1>         0.0267 
     91 H39        43.8800   12.1581    3.6347 H         1 <1>         0.0277 
     92 H40        43.3517   10.7718    4.6020 H         1 <1>         0.0277 
     93 H41        42.9770   12.0955    6.6030 H         1 <1>         0.0435 
     94 H42        45.2504   15.6584    4.9990 H         1 <1>         0.0399 
     95 H43        44.7208   14.4051    3.8323 H         1 <1>         0.0399 
     96 H44        45.5205   10.3125    5.7370 H         1 <1>         0.1849 
     97 H45        47.3374   13.4701    3.9207 H         1 <1>         0.1849 
@<TRIPOS>BOND
     1    2    1 ar   
     2    2    3 ar   
     3    3    4 ar   
     4    4    5 ar   
     5    5    6 ar   
     6    1    6 ar   
     7    4    7 1    
     8    7    8 2    
     9    7    9 1    
    10    9   10 1    
    11   10   11 2    
    12    5   11 1    
    13    9   12 1    
    14   11   13 1    
    15   13   14 ar   
    16   14   15 ar   
    17   15   16 ar   
    18   16   17 ar   
    19   17   18 ar   
    20   13   18 ar   
    21   16   19 1    
    22   19   20 1    
    23   20   21 1    
    24   21   22 2    
    25   21   23 am   
    26   23   24 1    
    27   24   25 1    
    28   25   26 1    
    29   26   27 1    
    30   27   28 1    
    31   23   28 1    
    32   17   29 1    
    33   29   30 1    
    34   30   31 1    
    35   31   32 1    
    36   32   33 1    
    37   33   34 1    
    38   34   35 1    
    39   35   36 1    
    40   36   37 2    
    41   36   38 1    
    42   38   39 1    
    43   39   40 1    
    44   40   41 1    
    45   41   42 1    
    46   42   43 1    
    47   43   44 1    
    48   44   45 1    
    49   45   46 1    
    50   42   46 1    
    51   46   47 1    
    52   47   48 am   
    53   48   49 am   
    54   45   49 1    
    55   48   50 2    
    56   46   51 1    
    57   45   52 1    
    58    1   53 1    
    59    2   54 1    
    60    3   55 1    
    61    6   56 1    
    62   12   57 1    
    63   12   58 1    
    64   12   59 1    
    65   14   60 1    
    66   15   61 1    
    67   18   62 1    
    68   20   63 1    
    69   20   64 1    
    70   24   65 1    
    71   24   66 1    
    72   25   67 1    
    73   25   68 1    
    74   26   69 1    
    75   26   70 1    
    76   27   71 1    
    77   27   72 1    
    78   28   73 1    
    79   28   74 1    
    80   29   75 1    
    81   29   76 1    
    82   30   77 1    
    83   30   78 1    
    84   31   79 1    
    85   31   80 1    
    86   33   81 1    
    87   33   82 1    
    88   34   83 1    
    89   34   84 1    
    90   38   85 1    
    91   38   86 1    
    92   39   87 1    
    93   39   88 1    
    94   40   89 1    
    95   40   90 1    
    96   41   91 1    
    97   41   92 1    
    98   42   93 1    
    99   44   94 1    
   100   44   95 1    
   101   47   96 1    
   102   49   97 1    
@<TRIPOS>SUBSTRUCTURE
     1 ****        2 TEMP              0 ****  ****    0 ROOT 
@<TRIPOS>NORMAL
@<TRIPOS>FF_PBC
FORCE_FIELD_SETUP_FEATURE Force Field Setup information
v1.0  0 0.000000 0.000000 0.000000 0.000000 0.000000 0.000000 NONE 0 0 0 0 0 0 0 0 0 0 0 0 0
