#	Name:			PISM00032
#	Creating user name:	baoopengkun
#	Creation time:		Sat Nov 17 17:50:51 2018

#	Modifying user name:	baoopengkun
#	Modification time:	Sat Nov 17 17:53:55 2018

@<TRIPOS>MOLECULE
PISM00032
   26    27     1     2     0
SMALL
GAST_HUCK


@<TRIPOS>ATOM
      1 O1         -1.7065   -4.4276   13.2026 O.2       1 <1>        -0.3492 
      2 C2         -0.9841   -3.9278   12.3573 C.2       1 <1>         0.2576 
      3 C3          0.3759   -3.4441   12.6290 C.2       1 <1>         0.0412 
      4 C4          0.8328   -2.9608   11.4707 C.2       1 <1>         0.0412 
      5 C5         -0.2487   -3.1549   10.4958 C.2       1 <1>         0.2576 
      6 N6         -1.2506   -3.7181   11.1026 N.pl3     1 <1>        -0.1367 
      7 C7         -2.4233   -4.0437   10.5045 C.ar      1 <1>         0.0916 
      8 C8         -3.0180   -5.2892   10.7397 C.ar      1 <1>        -0.0152 
      9 C9         -4.2357   -5.6284   10.1384 C.ar      1 <1>         0.0528 
     10 C10        -4.8518   -4.7166    9.2745 C.ar      1 <1>        -0.0520 
     11 C11        -4.2596   -3.4762    9.0233 C.ar      1 <1>        -0.0652 
     12 C12        -3.0544   -3.1378    9.6444 C.ar      1 <1>        -0.0316 
     13 O13        -0.1693   -2.8317    9.3229 O.2       1 <1>        -0.3492 
     14 C14        -4.8816   -6.9695   10.4167 C.2       1 <1>         0.2603 
     15 O15        -6.0648   -7.2599    9.8530 O.3       1 <1>        -0.2809 
     16 C16        -6.5777   -8.5615   10.2004 C.3       1 <1>         0.0647 
     17 O17        -4.3168   -7.7669   11.1499 O.2       1 <1>        -0.3568 
     18 H1          0.8913   -3.4792   13.5876 H         1 <1>         0.0816 
     19 H2          1.8049   -2.5122   11.2718 H         1 <1>         0.0816 
     20 H3         -2.5268   -6.0041   11.3908 H         1 <1>         0.0591 
     21 H4         -5.7925   -4.9668    8.7941 H         1 <1>         0.0575 
     22 H5         -4.7373   -2.7740    8.3463 H         1 <1>         0.0600 
     23 H6         -2.6162   -2.1627    9.4585 H         1 <1>         0.0576 
     24 H7         -7.5431   -8.6913    9.6898 H         1 <1>         0.0575 
     25 H8         -6.7444   -8.6488   11.2862 H         1 <1>         0.0575 
     26 H9         -5.8977   -9.3619    9.8671 H         1 <1>         0.0575 
@<TRIPOS>BOND
     1    2    1 2    
     2    2    3 1    
     3    3    4 2    
     4    4    5 1    
     5    5    6 1    
     6    2    6 1    
     7    6    7 1    
     8    7    8 ar   
     9    8    9 ar   
    10    9   10 ar   
    11   10   11 ar   
    12   11   12 ar   
    13    7   12 ar   
    14    5   13 2    
    15    9   14 1    
    16   14   15 1    
    17   15   16 1    
    18   14   17 2    
    19    3   18 1    
    20    4   19 1    
    21    8   20 1    
    22   10   21 1    
    23   11   22 1    
    24   12   23 1    
    25   16   24 1    
    26   16   25 1    
    27   16   26 1    
@<TRIPOS>SUBSTRUCTURE
     1 ****        2 TEMP              0 ****  ****    0 ROOT 
@<TRIPOS>NORMAL
@<TRIPOS>FF_PBC
FORCE_FIELD_SETUP_FEATURE Force Field Setup information
v1.0  0 0.000000 0.000000 0.000000 0.000000 0.000000 0.000000 NONE 0 0 0 0 1 0 0 0 0 0 0 0 0
@<TRIPOS>RENDERING_ATTRS
ANTIALIASED_LINES 
*
