#	Name:			PISM00333
#	Creating user name:	malab
#	Creation time:		Fri Apr 05 17:34:06 2019

#	Modifying user name:	malab
#	Modification time:	Fri Apr 05 17:35:11 2019

@<TRIPOS>MOLECULE
PISM00333
   41    41     1     1     0
SMALL
GAST_HUCK


@<TRIPOS>ATOM
      1 C1         -9.0818  -15.7861  -19.2693 C.3       1 <1>         0.0220 
      2 C2        -10.2384  -16.5311  -19.9901 C.3       1 <1>         0.0293 
      3 C3        -10.3547  -17.9200  -19.4261 C.2       1 <1>         0.1475 
      4 C4         -9.1622  -18.6098  -18.9049 C.2       1 <1>         0.0132 
      5 C5         -7.9548  -18.0281  -18.9029 C.2       1 <1>        -0.0659 
      6 C6         -7.7662  -16.6165  -19.4272 C.3       1 <1>         0.0477 
      7 O7        -11.4394  -18.4794  -19.3980 O.2       1 <1>        -0.3649 
      8 C8         -9.4587  -15.5305  -17.7789 C.3       1 <1>        -0.0601 
      9 C9         -8.8984  -14.4788  -19.9008 C.1       1 <1>        -0.1101 
     10 C10        -8.7394  -13.4055  -20.4201 C.1       1 <1>        -0.1065 
     11 C11        -8.5432  -12.1064  -21.0499 C.3       1 <1>        -0.0026 
     12 O12        -7.4724  -16.8405  -20.8204 O.3       1 <1>        -0.4646 
     13 C13        -6.6328  -15.9193  -18.6957 C.2       1 <1>        -0.0852 
     14 C14        -5.6107  -15.2746  -19.2743 C.2       1 <1>        -0.0144 
     15 H1        -10.0515  -16.6120  -21.0721 H         1 <1>         0.0000 
     16 H2        -11.1847  -15.9843  -19.8503 H         1 <1>         0.0000 
     17 H3         -9.2929  -19.6218  -18.5220 H         1 <1>         0.0000 
     18 H4         -9.5039  -16.4703  -17.2096 H         1 <1>         0.0000 
     19 H5        -10.4427  -15.0418  -17.7119 H         1 <1>         0.0000 
     20 H6         -8.7340  -14.8630  -17.2894 H         1 <1>         0.0000 
     21 C21        -6.7243  -18.7564  -18.4064 C.3       1 <1>        -0.0367 
     22 H7         -7.9918  -11.4478  -20.3630 H         1 <1>         0.0000 
     23 H8         -9.5208  -11.6594  -21.2827 H         1 <1>         0.0000 
     24 H9         -7.9668  -12.2340  -21.9780 H         1 <1>         0.0000 
     25 H10        -7.4305  -16.0529  -21.3503 H         1 <1>         0.0000 
     26 H11        -6.6496  -15.9468  -17.6065 H         1 <1>         0.0000 
     27 C27        -4.5530  -14.6036  -18.4887 C.2       1 <1>         0.0000 
     28 H13        -5.5205  -15.2126  -20.3562 H         1 <1>         0.0000 
     29 H14        -6.8996  -19.8379  -18.3037 H         1 <1>         0.0000 
     30 H15        -6.4197  -18.3700  -17.4227 H         1 <1>         0.0000 
     31 H16        -5.8978  -18.6159  -19.1196 H         1 <1>         0.0000 
     32 C32        -4.9611  -13.7569  -17.3040 C.3       1 <1>         0.0000 
     33 C33        -3.2549  -14.7179  -18.8098 C.2       1 <1>         0.0000 
     34 C34        -2.6942  -15.5351  -19.9055 C.2       1 <1>         0.0000 
     35 O35        -1.5441  -15.3263  -20.2634 O.2       1 <1>         0.0000 
     36 O36        -3.4316  -16.4931  -20.4784 O.3       1 <1>         0.0000 
     37 H12        -4.8051  -14.3286  -16.3768 H         1 <1>         0.0000 
     38 H17        -6.0226  -13.4728  -17.3700 H         1 <1>         0.0000 
     39 H18        -4.3688  -12.8301  -17.2557 H         1 <1>         0.0000 
     40 H19        -2.5228  -14.1700  -18.2147 H         1 <1>         0.0000 
     41 H20        -2.9780  -16.9652  -21.1689 H         1 <1>         0.0000 
@<TRIPOS>BOND
     1    2    1 1    
     2    2    3 1    
     3    3    4 1    
     4    4    5 2    
     5    5    6 1    
     6    1    6 1    
     7    3    7 2    
     8    1    8 1    
     9    1    9 1    
    10    9   10 3    
    11   10   11 1    
    12    6   12 1    
    13    6   13 1    
    14   13   14 2    
    15    2   15 1    
    16    2   16 1    
    17    4   17 1    
    18    8   18 1    
    19    8   19 1    
    20    8   20 1    
    21    5   21 1    
    22   11   22 1    
    23   11   23 1    
    24   11   24 1    
    25   12   25 1    
    26   13   26 1    
    27   14   27 1    
    28   14   28 1    
    29   21   29 1    
    30   21   30 1    
    31   21   31 1    
    32   27   32 1    
    33   27   33 2    
    34   33   34 1    
    35   34   35 2    
    36   34   36 1    
    37   32   37 1    
    38   32   38 1    
    39   32   39 1    
    40   33   40 1    
    41   36   41 1    
@<TRIPOS>SUBSTRUCTURE
     1 ****        2 TEMP              0 ****  ****    0 ROOT 
@<TRIPOS>NORMAL
@<TRIPOS>FF_PBC
FORCE_FIELD_SETUP_FEATURE Force Field Setup information
v1.0  0 0.000000 0.000000 0.000000 0.000000 0.000000 0.000000 NONE 0 0 0 0 0 0 0 0 0 0 0 0 0
