#	Name:			PISM00743
#	Creating user name:	baoopengkun
#	Creation time:		Fri Jan 25 19:59:27 2019

#	Modifying user name:	baoopengkun
#	Modification time:	Fri Jan 25 19:59:27 2019

@<TRIPOS>MOLECULE
PISM00743
   89    92     1     1     0
SMALL
GAST_HUCK


@<TRIPOS>ATOM
      1 C1         -8.6043   17.5130   -4.4040 C.3       1 <1>        -0.0161 
      2 C2        -10.0839   17.9949   -4.3994 C.3       1 <1>         0.0849 
      3 C3        -10.8596   17.3727   -3.2022 C.3       1 <1>         0.0837 
      4 C4        -10.1402   17.6495   -1.8557 C.3       1 <1>        -0.0028 
      5 C5         -8.6850   17.1078   -1.9228 C.3       1 <1>         0.0681 
      6 C6         -7.8364   17.7633   -3.0665 C.3       1 <1>        -0.0055 
      7 C7         -6.3835   17.1358   -3.0883 C.3       1 <1>        -0.0276 
      8 C8         -6.3483   15.6131   -2.7323 C.3       1 <1>        -0.0063 
      9 C9         -6.5351   15.3897   -1.1904 C.3       1 <1>         0.0801 
     10 O10        -6.8377   16.5341   -0.3564 O.3       1 <1>        -0.2763 
     11 C11        -7.9465   17.2490   -0.6168 C.2       1 <1>         0.2374 
     12 O12        -8.3408   18.0432    0.2208 O.2       1 <1>        -0.3701 
     13 C13        -5.5546   17.4019   -4.3827 C.3       1 <1>        -0.0487 
     14 C14        -4.0463   17.0298   -4.1922 C.3       1 <1>        -0.0468 
     15 C15        -3.7867   15.7001   -3.3971 C.3       1 <1>        -0.0257 
     16 C16        -5.1187   14.9011   -3.3969 C.3       1 <1>        -0.0298 
     17 C17        -4.7605   13.4558   -2.9739 C.3       1 <1>        -0.0491 
     18 C18        -3.3035   13.2870   -3.4935 C.3       1 <1>        -0.0491 
     19 C19        -2.8503   14.6539   -4.1045 C.3       1 <1>        -0.0304 
     20 O20       -10.6282   17.5868   -5.6775 O.3       1 <1>        -0.3772 
     21 O21       -10.9619   15.9467   -3.3712 O.3       1 <1>        -0.3891 
     22 C22         1.2853   10.9496   -4.8946 C.3       1 <1>         0.0686 
     23 C23        -7.6867   19.3074   -2.8247 C.3       1 <1>        -0.0568 
     24 C24        -3.2684   15.9951   -1.9524 C.3       1 <1>        -0.0590 
     25 C25        -1.2898   14.8468   -4.0682 C.3       1 <1>        -0.0120 
     26 C26        -0.5849   13.6354   -4.7836 C.3       1 <1>         0.0842 
     27 C27         0.9711   13.6645   -4.8652 C.3       1 <1>         0.0865 
     28 C28         1.6602   12.3775   -5.4627 C.3       1 <1>         0.0132 
     29 C29       -11.9455   18.0932   -5.9759 C.3       1 <1>         0.0369 
     30 C30         1.4501   10.9049   -3.3493 C.3       1 <1>        -0.0358 
     31 C31        -0.1291   10.3976   -5.2747 C.3       1 <1>        -0.0358 
     32 C32        -0.8583   16.2291   -4.6386 C.3       1 <1>        -0.0597 
     33 O33        -1.1375   13.3661   -6.0821 O.3       1 <1>        -0.3890 
     34 O34         1.2675   14.7777   -5.7342 O.3       1 <1>        -0.3889 
     35 C35         3.2132   12.5893   -5.4018 C.3       1 <1>        -0.0574 
     36 H1         -8.1009   18.0297   -5.2357 H         1 <1>         0.0298 
     37 H2         -8.6090   16.4372   -4.6351 H         1 <1>         0.0298 
     38 H3        -10.1168   19.0939   -4.3398 H         1 <1>         0.0622 
     39 O39         2.2418    9.9497   -5.3408 O.3       1 <1>        -0.3768 
     40 C40         2.2891    9.6679   -6.7601 C.3       1 <1>         0.0371 
     41 H4        -11.8723   17.8064   -3.1323 H         1 <1>         0.0621 
     42 H5        -10.6874   17.1178   -1.0581 H         1 <1>         0.0319 
     43 H6        -10.1796   18.7175   -1.6000 H         1 <1>         0.0319 
     44 H7         -8.8564   16.0371   -2.0875 H         1 <1>         0.0560 
     45 H8         -5.8042   17.6492   -2.3079 H         1 <1>         0.0311 
     46 H9         -7.1938   15.1161   -3.2355 H         1 <1>         0.0332 
     47 H10        -5.5917   15.0714   -0.7344 H         1 <1>         0.0616 
     48 H11        -7.2595   14.5827   -0.9872 H         1 <1>         0.0616 
     49 H12        -5.5908   18.4589   -4.6852 H         1 <1>         0.0268 
     50 H13        -5.9889   16.8303   -5.2175 H         1 <1>         0.0268 
     51 H14        -3.5679   17.8704   -3.6629 H         1 <1>         0.0271 
     52 H15        -3.6003   16.9842   -5.1985 H         1 <1>         0.0271 
     53 H16        -5.3746   14.7690   -4.4665 H         1 <1>         0.0310 
     54 H17        -5.4532   12.7178   -3.4145 H         1 <1>         0.0268 
     55 H18        -4.7842   13.3067   -1.8854 H         1 <1>         0.0268 
     56 H19        -3.2484   12.4801   -4.2444 H         1 <1>         0.0268 
     57 H20        -2.6560   13.0060   -2.6463 H         1 <1>         0.0268 
     58 H21        -3.1274   14.6406   -5.1728 H         1 <1>         0.0310 
     59 H22       -11.3603   15.7134   -4.2048 H         1 <1>         0.2099 
     60 H23        -7.1652   19.5091   -1.8769 H         1 <1>         0.0237 
     61 H24        -8.6337   19.8537   -2.7758 H         1 <1>         0.0237 
     62 H25        -7.1115   19.7852   -3.6278 H         1 <1>         0.0237 
     63 H26        -3.1208   15.0759   -1.3694 H         1 <1>         0.0235 
     64 H27        -3.9515   16.6443   -1.3927 H         1 <1>         0.0235 
     65 H28        -2.3055   16.5225   -1.9836 H         1 <1>         0.0235 
     66 H29        -0.9626   14.8328   -3.0146 H         1 <1>         0.0327 
     67 H30        -0.8198   12.7890   -4.1420 H         1 <1>         0.0622 
     68 H31         1.3413   13.8643   -3.8442 H         1 <1>         0.0623 
     69 H32         1.3702   12.3667   -6.5248 H         1 <1>         0.0352 
     70 H33       -12.1814   17.7863   -7.0055 H         1 <1>         0.0524 
     71 H34       -11.9792   19.1929   -5.9313 H         1 <1>         0.0524 
     72 H35       -12.7212   17.6752   -5.3186 H         1 <1>         0.0524 
     73 H36         1.2358    9.8883   -2.9846 H         1 <1>         0.0257 
     74 H37         0.7695   11.5984   -2.8380 H         1 <1>         0.0257 
     75 H38         2.4810   11.1544   -3.0602 H         1 <1>         0.0257 
     76 H39        -0.4189   10.7100   -6.2889 H         1 <1>         0.0257 
     77 H40        -0.9328   10.6725   -4.5831 H         1 <1>         0.0257 
     78 H41        -0.1086    9.2971   -5.2443 H         1 <1>         0.0257 
     79 H42         0.2085   16.4194   -4.4585 H         1 <1>         0.0233 
     80 H43        -1.3786   17.0526   -4.1395 H         1 <1>         0.0233 
     81 H44        -1.0631   16.2924   -5.7171 H         1 <1>         0.0233 
     82 H45        -0.8969   14.0485   -6.7002 H         1 <1>         0.2099 
     83 H46         2.1644   15.0907   -5.7025 H         1 <1>         0.2099 
     84 H47         3.7970   11.6888   -5.6316 H         1 <1>         0.0234 
     85 H48         3.5217   12.9218   -4.3997 H         1 <1>         0.0234 
     86 H49         3.5459   13.3439   -6.1290 H         1 <1>         0.0234 
     87 H50         1.3592    9.2329   -7.1518 H         1 <1>         0.0524 
     88 H51         3.0805    8.9156   -6.8911 H         1 <1>         0.0524 
     89 H52         2.5593   10.5363   -7.3764 H         1 <1>         0.0524 
@<TRIPOS>BOND
     1    1    2 1    
     2    2    3 1    
     3    4    3 1    
     4    5    4 1    
     5    6    5 1    
     6    6    1 1    
     7    7    6 1    
     8    8    7 1    
     9    8    9 1    
    10    9   10 1    
    11   10   11 1    
    12   11   12 2    
    13   11    5 1    
    14   13    7 1    
    15   14   13 1    
    16   15   14 1    
    17   15   16 1    
    18   16    8 1    
    19   16   17 1    
    20   18   17 1    
    21   19   18 1    
    22   19   15 1    
    23    2   20 1    
    24    3   21 1    
    25   28   22 1    
    26    6   23 1    
    27   15   24 1    
    28   25   19 1    
    29   26   25 1    
    30   27   26 1    
    31   27   28 1    
    32   20   29 1    
    33   22   30 1    
    34   22   31 1    
    35   25   32 1    
    36   26   33 1    
    37   27   34 1    
    38   28   35 1    
    39    1   36 1    
    40    1   37 1    
    41    2   38 1    
    42   22   39 1    
    43   39   40 1    
    44    3   41 1    
    45    4   42 1    
    46    4   43 1    
    47    5   44 1    
    48    7   45 1    
    49    8   46 1    
    50    9   47 1    
    51    9   48 1    
    52   13   49 1    
    53   13   50 1    
    54   14   51 1    
    55   14   52 1    
    56   16   53 1    
    57   17   54 1    
    58   17   55 1    
    59   18   56 1    
    60   18   57 1    
    61   19   58 1    
    62   21   59 1    
    63   23   60 1    
    64   23   61 1    
    65   23   62 1    
    66   24   63 1    
    67   24   64 1    
    68   24   65 1    
    69   25   66 1    
    70   26   67 1    
    71   27   68 1    
    72   28   69 1    
    73   29   70 1    
    74   29   71 1    
    75   29   72 1    
    76   30   73 1    
    77   30   74 1    
    78   30   75 1    
    79   31   76 1    
    80   31   77 1    
    81   31   78 1    
    82   32   79 1    
    83   32   80 1    
    84   32   81 1    
    85   33   82 1    
    86   34   83 1    
    87   35   84 1    
    88   35   85 1    
    89   35   86 1    
    90   40   87 1    
    91   40   88 1    
    92   40   89 1    
@<TRIPOS>SUBSTRUCTURE
     1 ****        2 TEMP              0 ****  ****    0 ROOT 
@<TRIPOS>NORMAL
@<TRIPOS>FF_PBC
FORCE_FIELD_SETUP_FEATURE Force Field Setup information
v1.0  0 0.000000 0.000000 0.000000 0.000000 0.000000 0.000000 NONE 0 0 0 0 1 0 0 0 0 0 0 0 0
