#	Name:			PISM00768
#	Creating user name:	baoopengkun
#	Creation time:		Fri Dec 14 22:58:53 2018

#	Modifying user name:	baoopengkun
#	Modification time:	Fri Dec 14 23:08:08 2018

@<TRIPOS>MOLECULE
PISM00768
   33    34     1     1     0
SMALL
GAST_HUCK


@<TRIPOS>ATOM
      1 C1         25.1723   16.6386  -22.0053 C.3       1 <1>        -0.0338 
      2 C2         26.2970   15.7111  -21.5303 C.ar      1 <1>        -0.0518 
      3 C3         26.0280   14.5739  -20.7607 C.ar      1 <1>        -0.0668 
      4 C4         27.0703   13.7408  -20.3432 C.ar      1 <1>        -0.0702 
      5 C5         28.3979   14.0498  -20.6606 C.ar      1 <1>        -0.0370 
      6 C6         28.6643   15.1838  -21.4354 C.ar      1 <1>        -0.0702 
      7 C7         27.6208   16.0048  -21.8725 C.ar      1 <1>        -0.0668 
      8 C8         29.5396   13.1762  -20.1801 C.2       1 <1>         0.0476 
      9 C9         30.6035   12.8005  -21.1374 C.2       1 <1>         0.1029 
     10 H10        31.4997   12.2657  -20.8243 H         1 <1>         0.1255 
     11 O11        30.5079   13.0741  -22.3223 O.2       1 <1>        -0.3838 
     12 C12        29.5781   12.7591  -18.9064 C.2       1 <1>         0.1012 
     13 O13        28.6148   13.1342  -18.0499 O.3       1 <1>        -0.2509 
     14 C14        28.7834   12.6568  -16.7024 C.3       1 <1>         0.2454 
     15 C15        29.9643   13.3245  -16.0329 C.2       1 <1>         0.0004 
     16 C16        29.5587   14.0936  -15.0246 C.2       1 <1>         0.0294 
     17 C17        28.1111   13.9201  -15.0249 C.2       1 <1>         0.2496 
     18 O18        27.6353   13.0975  -15.9509 O.3       1 <1>        -0.2293 
     19 C19        30.3968   14.9403  -14.1059 C.3       1 <1>        -0.0323 
     20 O20        27.3824   14.4833  -14.2265 O.2       1 <1>        -0.3691 
     21 H1         25.3284   17.6410  -21.5794 H         1 <1>         0.0381 
     22 H2         24.1802   16.2755  -21.6979 H         1 <1>         0.0381 
     23 H3         25.1970   16.7063  -23.1032 H         1 <1>         0.0381 
     24 H4         25.0079   14.3286  -20.4835 H         1 <1>         0.0542 
     25 H5         26.8372   12.8459  -19.7757 H         1 <1>         0.0542 
     26 H6         29.6864   15.4366  -21.6979 H         1 <1>         0.0542 
     27 H7         27.8422   16.8766  -22.4801 H         1 <1>         0.0542 
     28 H8         30.4098   12.1204  -18.6015 H         1 <1>         0.1313 
     29 H9         28.8357   11.5563  -16.6448 H         1 <1>         0.1226 
     30 H11        31.0060   13.2049  -16.3275 H         1 <1>         0.0707 
     31 H12        31.0371   14.2931  -13.4884 H         1 <1>         0.0347 
     32 H13        29.7527   15.5403  -13.4455 H         1 <1>         0.0347 
     33 H14        31.0308   15.6181  -14.6968 H         1 <1>         0.0347 
@<TRIPOS>BOND
     1    2    1 1    
     2    2    3 ar   
     3    3    4 ar   
     4    4    5 ar   
     5    5    6 ar   
     6    6    7 ar   
     7    2    7 ar   
     8    5    8 1    
     9    8    9 1    
    10    9   10 1    
    11    9   11 2    
    12    8   12 2    
    13   12   13 1    
    14   13   14 1    
    15   14   15 1    
    16   15   16 2    
    17   16   17 1    
    18   17   18 1    
    19   14   18 1    
    20   16   19 1    
    21   17   20 2    
    22    1   21 1    
    23    1   22 1    
    24    1   23 1    
    25    3   24 1    
    26    4   25 1    
    27    6   26 1    
    28    7   27 1    
    29   12   28 1    
    30   14   29 1    
    31   15   30 1    
    32   19   31 1    
    33   19   32 1    
    34   19   33 1    
@<TRIPOS>SUBSTRUCTURE
     1 ****        2 TEMP              0 ****  ****    0 ROOT 
@<TRIPOS>NORMAL
@<TRIPOS>FF_PBC
FORCE_FIELD_SETUP_FEATURE Force Field Setup information
v1.0  0 0.000000 0.000000 0.000000 0.000000 0.000000 0.000000 NONE 0 0 0 0 1 0 0 0 0 0 0 0 0
