#	Name:			PISM01204
#	Creating user name:	14062
#	Creation time:		Sun Apr 07 00:34:16 2019

#	Modifying user name:	14062
#	Modification time:	Sun Apr 07 00:36:00 2019

@<TRIPOS>MOLECULE
PISM01204
   23    23     1     1     0
SMALL
GAST_HUCK


@<TRIPOS>ATOM
      1 C1         -4.3479    8.8219   -3.4608 C.ar      1 <1>         0.0510 
      2 C2         -3.8099    8.1528   -4.5640 C.ar      1 <1>        -0.0425 
      3 C3         -4.5845    7.2542   -5.3014 C.ar      1 <1>        -0.0631 
      4 C4         -5.8965    6.9931   -4.9004 C.ar      1 <1>        -0.0627 
      5 C5         -6.4094    7.6157   -3.7586 C.ar      1 <1>        -0.0463 
      6 C6         -5.6445    8.5282   -3.0192 C.ar      1 <1>         0.0747 
      7 C7         -6.3049    9.1456   -1.7988 C.2       1 <1>         0.2565 
      8 O8         -7.4968    9.4146   -1.8817 O.2       1 <1>        -0.3612 
      9 O9         -5.7220    9.4051   -0.6302 O.3       1 <1>        -0.2945 
     10 S10        -3.3586   10.0262   -2.6312 S.3       1 <1>        -0.0081 
     11 Hg11       -2.8514    8.6127   -1.1996 Hg        1 <1>        -4.0000 
     12 C12        -1.6060    9.4095    0.0966 C.3       1 <1>        -0.0562 
     13 C13        -2.5070   10.2503    1.0182 C.3       1 <1>        -0.0653 
     14 H1         -2.7764    8.3383   -4.8346 H         1 <1>         0.0578 
     15 H2         -4.1666    6.7625   -6.1734 H         1 <1>         0.0637 
     16 H3         -6.5130    6.3055   -5.4703 H         1 <1>         0.0572 
     17 H4         -7.4196    7.3816   -3.4397 H         1 <1>         0.0654 
     18 H5         -4.8038    9.1030   -0.6387 H         1 <1>         0.2521 
     19 H10        -0.8694   10.0369   -0.4298 H         1 <1>         0.0263 
     20 H11        -1.0841    8.6158    0.6541 H         1 <1>         0.0263 
     21 H12        -3.0418   10.9893    0.4037 H         1 <1>         0.0230 
     22 H13        -1.9177   10.7623    1.7925 H         1 <1>         0.0230 
     23 H14        -3.2443    9.5834    1.4884 H         1 <1>         0.0230 
@<TRIPOS>BOND
     1    2    1 ar   
     2    2    3 ar   
     3    3    4 ar   
     4    4    5 ar   
     5    5    6 ar   
     6    1    6 ar   
     7    6    7 1    
     8    7    8 2    
     9    7    9 1    
    10    1   10 1    
    11   10   11 1    
    12   11   12 1    
    13   12   13 1    
    14    2   14 1    
    15    3   15 1    
    16    4   16 1    
    17    5   17 1    
    18    9   18 1    
    19   12   19 1    
    20   12   20 1    
    21   13   21 1    
    22   13   22 1    
    23   13   23 1    
@<TRIPOS>SUBSTRUCTURE
     1 ****        2 TEMP              0 ****  ****    0 ROOT 
@<TRIPOS>NORMAL
@<TRIPOS>FF_PBC
FORCE_FIELD_SETUP_FEATURE Force Field Setup information
v1.0  0 0.000000 0.000000 0.000000 0.000000 0.000000 0.000000 NONE 0 0 0 0 1 0 0 0 0 0 0 0 0
