#	Name:			PISM00843.1
#	Creating user name:	baoopengkun
#	Creation time:		Thu Dec 13 14:40:19 2018

#	Modifying user name:	baoopengkun
#	Modification time:	Thu Dec 13 14:52:00 2018

@<TRIPOS>MOLECULE
PISM00843.1
   27    28     1     1     0
SMALL
GAST_HUCK


@<TRIPOS>ATOM
      1 C1         -3.5049   17.3937    1.6023 C.ar      1 <1>        -0.0392 
      2 C2         -3.6657   16.3523    0.6838 C.ar      1 <1>        -0.0690 
      3 C3         -4.8547   16.2299   -0.0443 C.ar      1 <1>        -0.0568 
      4 C4         -5.8806   17.1616    0.1531 C.ar      1 <1>        -0.0690 
      5 C5         -5.7216   18.2019    1.0734 C.ar      1 <1>        -0.0392 
      6 C6         -4.5276   18.3265    1.7884 C.ar      1 <1>         0.0908 
      7 C7         -5.0250   15.0816   -1.0467 C.3       1 <1>        -0.0363 
      8 O8         -4.3524   19.3784    2.6858 O.3       1 <1>        -0.2755 
      9 C9         -4.0561   20.6357    2.0609 C.3       1 <1>         0.2343 
     10 C10        -2.7384   20.5621    1.3250 C.2       1 <1>        -0.0022 
     11 C11        -1.8440   21.3733    1.8855 C.2       1 <1>         0.0291 
     12 C12        -2.5836   21.9925    2.9796 C.2       1 <1>         0.2494 
     13 O13        -3.8498   21.6132    3.1000 O.3       1 <1>        -0.2315 
     14 C14        -0.4137   21.6004    1.4789 C.3       1 <1>        -0.0323 
     15 O15        -2.0808   22.8099    3.7313 O.2       1 <1>        -0.3691 
     16 H1         -2.5863   17.4837    2.1729 H         1 <1>         0.0525 
     17 H2         -2.8612   15.6384    0.5377 H         1 <1>         0.0530 
     18 H3         -6.8066   17.0826   -0.4076 H         1 <1>         0.0530 
     19 H4         -6.5246   18.9132    1.2356 H         1 <1>         0.0525 
     20 H5         -4.5609   15.3717   -2.0009 H         1 <1>         0.0370 
     21 H6         -4.8705   20.9725    1.3988 H         1 <1>         0.1196 
     22 H7         -2.5442   19.9300    0.4592 H         1 <1>         0.0705 
     23 H8          0.1628   20.6749    1.6256 H         1 <1>         0.0347 
     24 H9          0.0347   22.4008    2.0863 H         1 <1>         0.0347 
     25 H10        -0.3688   21.8897    0.4184 H         1 <1>         0.0347 
     26 H11        -6.0882   14.8568   -1.2195 H         1 <1>         0.0370 
     27 H12        -4.5367   14.1690   -0.6726 H         1 <1>         0.0370 
@<TRIPOS>BOND
     1    2    1 ar   
     2    2    3 ar   
     3    3    4 ar   
     4    4    5 ar   
     5    5    6 ar   
     6    1    6 ar   
     7    3    7 1    
     8    6    8 1    
     9    8    9 1    
    10    9   10 1    
    11   10   11 2    
    12   11   12 1    
    13   12   13 1    
    14    9   13 1    
    15   11   14 1    
    16   12   15 2    
    17    1   16 1    
    18    2   17 1    
    19    4   18 1    
    20    5   19 1    
    21    7   20 1    
    22    9   21 1    
    23   10   22 1    
    24   14   23 1    
    25   14   24 1    
    26   14   25 1    
    27    7   26 1    
    28    7   27 1    
@<TRIPOS>SUBSTRUCTURE
     1 ****        2 TEMP              0 ****  ****    0 ROOT 
@<TRIPOS>NORMAL
@<TRIPOS>FF_PBC
FORCE_FIELD_SETUP_FEATURE Force Field Setup information
v1.0  0 0.000000 0.000000 0.000000 0.000000 0.000000 0.000000 NONE 0 0 0 0 1 0 0 0 0 0 0 0 0
