#	Name:			PISM00274
#	Creating user name:	baoopengkun
#	Creation time:		Sun Mar 31 17:37:08 2019

#	Modifying user name:	baoopengkun
#	Modification time:	Sun Mar 31 17:41:49 2019

@<TRIPOS>MOLECULE
PISM00274
   55    56     1     1     0
SMALL
GAST_HUCK


@<TRIPOS>ATOM
      1 C1         -5.7969    4.7200   -4.4472 C.ar      1 <1>        -0.0795 
      2 C2         -4.4786    5.1305   -4.6664 C.ar      1 <1>        -0.0432 
      3 C3         -3.4707    4.1836   -4.8926 C.ar      1 <1>         0.1176 
      4 C4         -3.8023    2.8236   -4.8625 C.ar      1 <1>         0.1167 
      5 C5         -5.1198    2.4179   -4.6350 C.ar      1 <1>        -0.0403 
      6 C6         -6.1352    3.3630   -4.4516 C.ar      1 <1>        -0.0595 
      7 O7         -2.1402    4.5561   -5.1474 O.3       1 <1>        -0.3259 
      8 C8         -1.7314    5.9304   -5.2369 C.3       1 <1>         0.0567 
      9 O9         -2.8170    1.8524   -5.0589 O.3       1 <1>        -0.3256 
     10 C10        -1.9573    1.6521   -3.9254 C.3       1 <1>         0.0568 
     11 C11        -7.5858    2.9739   -4.2525 C.2       1 <1>        -0.0763 
     12 C12        -8.1299    1.8571   -4.7546 C.2       1 <1>        -0.0657 
     13 C13        -9.5814    1.4919   -4.5512 C.3       1 <1>         0.0325 
     14 N14       -10.3592    1.7086   -5.7984 N.3       1 <1>        -0.2613 
     15 C15       -10.4580    3.1330   -6.2149 C.3       1 <1>         0.1045 
     16 C16       -11.0493    4.0126   -5.1437 C.2       1 <1>         0.2482 
     17 O17       -12.1931    3.8465   -4.7488 O.2       1 <1>        -0.3690 
     18 O18       -10.2412    4.9696   -4.6641 O.3       1 <1>        -0.2792 
     19 C19       -10.8409    5.7615   -3.6209 C.3       1 <1>         0.0658 
     20 C20       -10.0512    0.7806   -6.9157 C.3       1 <1>         0.0326 
     21 C21       -10.1978   -0.6807   -6.4750 C.ar      1 <1>        -0.0393 
     22 C22        -9.1605   -1.6044   -6.6506 C.ar      1 <1>        -0.0675 
     23 C23        -9.3197   -2.9271   -6.2264 C.ar      1 <1>        -0.0395 
     24 C24       -10.5137   -3.3311   -5.6248 C.ar      1 <1>         0.0837 
     25 C25       -11.5554   -2.4155   -5.4589 C.ar      1 <1>        -0.0395 
     26 C26       -11.3955   -1.0927   -5.8806 C.ar      1 <1>        -0.0675 
     27 O27       -10.6647   -4.6476   -5.1906 O.3       1 <1>        -0.3257 
     28 H1         -6.5658    5.4678   -4.2773 H         1 <1>         0.0472 
     29 H2         -4.2664    6.1925   -4.6566 H         1 <1>         0.0508 
     30 H3         -5.3304    1.3562   -4.5939 H         1 <1>         0.0473 
     31 H4         -0.6548    5.9443   -5.4616 H         1 <1>         0.0573 
     32 H5         -1.8919    6.4546   -4.2824 H         1 <1>         0.0573 
     33 H6         -2.2623    6.4484   -6.0505 H         1 <1>         0.0573 
     34 H7         -1.2321    0.8653   -4.1795 H         1 <1>         0.0573 
     35 H8         -2.5417    1.3253   -3.0511 H         1 <1>         0.0573 
     36 H9         -1.4044    2.5694   -3.6707 H         1 <1>         0.0573 
     37 H10        -8.2061    3.6606   -3.6768 H         1 <1>         0.0412 
     38 H11        -7.5324    1.1687   -5.3503 H         1 <1>         0.0691 
     39 H12       -10.0314    2.0799   -3.7362 H         1 <1>         0.0619 
     40 H13        -9.6351    0.4414   -4.2272 H         1 <1>         0.0619 
     41 H14       -11.1310    3.2305   -7.0797 H         1 <1>         0.0688 
     42 H15        -9.4673    3.5140   -6.5090 H         1 <1>         0.0688 
     43 H16       -11.7335    6.2947   -3.9860 H         1 <1>         0.0577 
     44 H17       -10.1001    6.5057   -3.2937 H         1 <1>         0.0577 
     45 H18       -11.1142    5.1382   -2.7542 H         1 <1>         0.0577 
     46 H19        -9.0467    0.9840   -7.3177 H         1 <1>         0.0572 
     47 H20       -10.7750    0.9196   -7.7339 H         1 <1>         0.0572 
     48 H21        -8.2274   -1.3025   -7.1155 H         1 <1>         0.0530 
     49 H22        -8.5182   -3.6456   -6.3615 H         1 <1>         0.0525 
     50 H23       -12.4860   -2.7358   -5.0024 H         1 <1>         0.0525 
     51 H24       -12.2045   -0.3816   -5.7440 H         1 <1>         0.0530 
     52 C52       -10.3364   -4.8367   -3.8054 C.3       1 <1>         0.0579 
     53 H25       -10.9895   -4.2294   -3.1593 H         1 <1>         0.0575 
     54 H26        -9.2849   -4.5704   -3.6148 H         1 <1>         0.0575 
     55 H27       -10.4828   -5.8982   -3.5572 H         1 <1>         0.0575 
@<TRIPOS>BOND
     1    2    1 ar   
     2    2    3 ar   
     3    3    4 ar   
     4    4    5 ar   
     5    5    6 ar   
     6    1    6 ar   
     7    3    7 1    
     8    7    8 1    
     9    4    9 1    
    10    9   10 1    
    11    6   11 1    
    12   11   12 2    
    13   12   13 1    
    14   13   14 1    
    15   14   15 1    
    16   15   16 1    
    17   16   17 2    
    18   16   18 1    
    19   18   19 1    
    20   14   20 1    
    21   20   21 1    
    22   21   22 ar   
    23   22   23 ar   
    24   23   24 ar   
    25   24   25 ar   
    26   25   26 ar   
    27   21   26 ar   
    28   24   27 1    
    29    1   28 1    
    30    2   29 1    
    31    5   30 1    
    32    8   31 1    
    33    8   32 1    
    34    8   33 1    
    35   10   34 1    
    36   10   35 1    
    37   10   36 1    
    38   11   37 1    
    39   12   38 1    
    40   13   39 1    
    41   13   40 1    
    42   15   41 1    
    43   15   42 1    
    44   19   43 1    
    45   19   44 1    
    46   19   45 1    
    47   20   46 1    
    48   20   47 1    
    49   22   48 1    
    50   23   49 1    
    51   25   50 1    
    52   26   51 1    
    53   27   52 1    
    54   52   53 1    
    55   52   54 1    
    56   52   55 1    
@<TRIPOS>SUBSTRUCTURE
     1 ****        2 TEMP              0 ****  ****    0 ROOT 
@<TRIPOS>NORMAL
@<TRIPOS>FF_PBC
FORCE_FIELD_SETUP_FEATURE Force Field Setup information
v1.0  0 0.000000 0.000000 0.000000 0.000000 0.000000 0.000000 NONE 0 0 0 0 1 0 0 0 0 0 0 0 0
