#	Name:			PISM00965.1
#	Creating user name:	baoopengkun
#	Creation time:		Thu Dec 13 10:35:31 2018

#	Modifying user name:	baoopengkun
#	Modification time:	Thu Dec 13 11:05:15 2018

@<TRIPOS>MOLECULE
PISM00965.1
   44    46     1     1     0
SMALL
GAST_HUCK


@<TRIPOS>ATOM
      1 C1         -7.6036   12.2720   -7.5985 C.ar      1 <1>        -0.0173 
      2 C2         -7.1003   11.6777   -6.4390 C.ar      1 <1>        -0.0319 
      3 C3         -7.7866   10.6116   -5.8561 C.ar      1 <1>        -0.0380 
      4 C4         -8.9831   10.1536   -6.4152 C.ar      1 <1>        -0.0432 
      5 C5         -9.5357   10.7631   -7.5527 C.ar      1 <1>        -0.0263 
      6 C6         -8.8013   11.8002   -8.1486 C.ar      1 <1>        -0.0366 
      7 C7        -10.9015   10.3336   -8.1650 C.3       1 <1>         0.0857 
      8 O8        -11.7150   11.5035   -8.3787 O.3       1 <1>        -0.4205 
      9 C9        -10.6119    9.5909   -9.5063 C.3       1 <1>        -0.0353 
     10 C10       -11.7427    9.4413   -7.1992 C.3       1 <1>         0.0824 
     11 N11       -13.1332    9.2233   -7.5888 N.pl3     1 <1>        -0.1836 
     12 N12       -13.9687   10.1144   -8.1937 N.2       1 <1>        -0.1909 
     13 C13       -15.1317    9.6379   -8.4400 C.2       1 <1>         0.0618 
     14 N14       -14.9864    8.3041   -7.9273 N.2       1 <1>        -0.2870 
     15 C15       -13.8333    8.1358   -7.4621 C.2       1 <1>         0.1269 
     16 C16       -11.8725    9.1874  -10.3154 C.3       1 <1>        -0.0238 
     17 C17       -11.4430    8.6573  -11.6916 C.ar      1 <1>        -0.0434 
     18 C18       -11.3716    9.5195  -12.7919 C.ar      1 <1>        -0.0597 
     19 C19       -10.9876    9.0340  -14.0454 C.ar      1 <1>        -0.0546 
     20 C20       -10.6679    7.6833  -14.2049 C.ar      1 <1>         0.0330 
     21 C21       -10.7318    6.8197  -13.1085 C.ar      1 <1>        -0.0546 
     22 C22       -11.1158    7.3064  -11.8555 C.ar      1 <1>        -0.0597 
     23 Cl23      -10.1877    7.0741  -15.7757 Cl        1 <1>        -0.0771 
     24 C24        -6.8289   13.4297   -8.2421 C.3       1 <1>        -0.0248 
     25 H1         -6.1796   12.0404   -5.9925 H         1 <1>         0.0803 
     26 H2         -7.3866   10.1374   -4.9642 H         1 <1>         0.0683 
     27 H3         -9.4571    9.3096   -5.9319 H         1 <1>         0.0801 
     28 H4         -9.1518   12.2605   -9.0632 H         1 <1>         0.0778 
     29 H5        -11.4254   12.0888   -9.0669 H         1 <1>         0.1962 
     30 H6        -10.0112    8.6900   -9.3014 H         1 <1>         0.0220 
     31 H7        -10.0111   10.2487  -10.1537 H         1 <1>         0.0220 
     32 H8        -11.8001    9.9402   -6.2197 H         1 <1>         0.0572 
     33 H9        -11.2612    8.4584   -7.0840 H         1 <1>         0.0572 
     34 H10       -15.9904   10.1156   -8.9088 H         1 <1>         0.0863 
     35 H11       -13.4925    7.1995   -7.0223 H         1 <1>         0.1361 
     36 H12       -12.5403   10.0539  -10.4409 H         1 <1>         0.0420 
     37 H13       -12.4370    8.3958   -9.8031 H         1 <1>         0.0420 
     38 H14       -11.6125   10.5716  -12.6774 H         1 <1>         0.0557 
     39 H15       -10.9368    9.7048  -14.8970 H         1 <1>         0.0606 
     40 H16       -10.4824    5.7709  -13.2324 H         1 <1>         0.0606 
     41 H17       -11.1571    6.6287  -11.0086 H         1 <1>         0.0557 
     42 H18        -5.7808   13.1307   -8.3942 H         1 <1>         0.0396 
     43 H19        -6.8596   14.2988   -7.5680 H         1 <1>         0.0396 
     44 H20        -7.2504   13.7236   -9.2151 H         1 <1>         0.0396 
@<TRIPOS>BOND
     1    2    1 ar   
     2    2    3 ar   
     3    3    4 ar   
     4    4    5 ar   
     5    5    6 ar   
     6    1    6 ar   
     7    5    7 1    
     8    7    8 1    
     9    7    9 1    
    10    7   10 1    
    11   10   11 1    
    12   11   12 1    
    13   12   13 2    
    14   13   14 1    
    15   14   15 2    
    16   11   15 1    
    17    9   16 1    
    18   16   17 1    
    19   17   18 ar   
    20   18   19 ar   
    21   19   20 ar   
    22   20   21 ar   
    23   21   22 ar   
    24   17   22 ar   
    25   20   23 1    
    26    1   24 1    
    27    2   25 1    
    28    3   26 1    
    29    4   27 1    
    30    6   28 1    
    31    8   29 1    
    32    9   30 1    
    33    9   31 1    
    34   10   32 1    
    35   10   33 1    
    36   13   34 1    
    37   15   35 1    
    38   16   36 1    
    39   16   37 1    
    40   18   38 1    
    41   19   39 1    
    42   21   40 1    
    43   22   41 1    
    44   24   42 1    
    45   24   43 1    
    46   24   44 1    
@<TRIPOS>SUBSTRUCTURE
     1 ****        2 TEMP              0 ****  ****    0 ROOT 
@<TRIPOS>NORMAL
@<TRIPOS>FF_PBC
FORCE_FIELD_SETUP_FEATURE Force Field Setup information
v1.0  0 0.000000 0.000000 0.000000 0.000000 0.000000 0.000000 NONE 0 0 0 0 1 0 0 0 0 0 0 0 0
