#	Name:			PISM00808.1
#	Creating user name:	baoopengkun
#	Creation time:		Sat Dec 15 02:25:18 2018

#	Modifying user name:	baoopengkun
#	Modification time:	Sat Dec 15 02:30:17 2018

@<TRIPOS>MOLECULE
PISM00808.1
   26    26     1     1     0
SMALL
GAST_HUCK


@<TRIPOS>ATOM
      1 H1          7.5685   20.9443  -44.8397 H         1 <1>         0.1246 
      2 H2          5.9514   23.4037  -47.9203 H         1 <1>         0.0317 
      3 H3          5.9661   24.0548  -46.2619 H         1 <1>         0.0317 
      4 H4          4.5565   23.1239  -46.8335 H         1 <1>         0.0317 
      5 O5          7.3611   22.8888  -44.5803 O.2       1 <1>        -0.3854 
      6 C6          7.1247   21.8693  -45.2072 C.2       1 <1>         0.0981 
      7 C7          6.2693   21.9002  -46.4150 C.2       1 <1>         0.0128 
      8 C8          5.6534   23.2005  -46.8804 C.3       1 <1>        -0.0394 
      9 C9          6.0305   20.7798  -47.1112 C.2       1 <1>         0.0768 
     10 O10         5.2503   20.8340  -48.2012 O.3       1 <1>        -0.2693 
     11 C11         5.0985   19.5686  -48.8661 C.3       1 <1>         0.2465 
     12 C12         4.0659   19.7259  -49.9543 C.2       1 <1>         0.0159 
     13 C13         3.0009   18.9556  -49.7400 C.2       1 <1>         0.0196 
     14 C14         3.3441   18.2791  -48.4925 C.2       1 <1>         0.2325 
     15 O15         4.5258   18.5932  -47.9711 O.3       1 <1>        -0.2328 
     16 C16         1.7528   18.8107  -50.5677 C.3       1 <1>        -0.0421 
     17 C17         4.3217   20.6787  -51.0933 C.3       1 <1>        -0.0223 
     18 O18         2.6032   17.4727  -47.9576 O.2       1 <1>        -0.3822 
     19 H5          6.4793   19.8437  -46.7691 H         1 <1>         0.1081 
     20 H6          6.0493   19.1991  -49.2854 H         1 <1>         0.1237 
     21 H7          2.0125   18.4584  -51.5770 H         1 <1>         0.0303 
     22 H8          1.2399   19.7811  -50.6420 H         1 <1>         0.0303 
     23 H9          1.0705   18.0834  -50.1027 H         1 <1>         0.0303 
     24 H10         5.2322   20.3773  -51.6322 H         1 <1>         0.0429 
     25 H11         4.4613   21.6955  -50.6963 H         1 <1>         0.0429 
     26 H12         3.4811   20.6913  -51.8026 H         1 <1>         0.0429 
@<TRIPOS>BOND
     1    6    1 1    
     2    8    2 1    
     3    8    3 1    
     4    8    4 1    
     5    5    6 2    
     6    6    7 1    
     7    7    8 1    
     8    7    9 2    
     9    9   10 1    
    10   10   11 1    
    11   11   12 1    
    12   12   13 2    
    13   14   13 1    
    14   15   14 1    
    15   11   15 1    
    16   13   16 1    
    17   12   17 1    
    18   14   18 2    
    19    9   19 1    
    20   11   20 1    
    21   16   21 1    
    22   16   22 1    
    23   16   23 1    
    24   17   24 1    
    25   17   25 1    
    26   17   26 1    
@<TRIPOS>SUBSTRUCTURE
     1 ****        5 TEMP              0 ****  ****    0 ROOT 
@<TRIPOS>NORMAL
@<TRIPOS>FF_PBC
FORCE_FIELD_SETUP_FEATURE Force Field Setup information
v1.0  0 0.000000 0.000000 0.000000 0.000000 0.000000 0.000000 NONE 0 0 0 0 1 0 0 0 0 0 0 0 0
