#	Name:			PISM01146
#	Creating user name:	baoopengkun
#	Creation time:		Tue Dec 18 16:06:18 2018

#	Modifying user name:	baoopengkun
#	Modification time:	Tue Dec 18 16:07:22 2018

@<TRIPOS>MOLECULE
PISM01146
   22    24     1     1     0
SMALL
GAST_HUCK


@<TRIPOS>ATOM
      1 C1          7.4794   10.0439    9.8774 C.ar      1 <1>        -0.0720 
      2 C2          8.4264    9.0579   10.1850 C.ar      1 <1>        -0.0776 
      3 C3          8.9695    8.2342    9.1858 C.ar      1 <1>        -0.0750 
      4 C4          8.5835    8.3686    7.8452 C.ar      1 <1>        -0.0409 
      5 C5          7.6397    9.3532    7.5541 C.ar      1 <1>         0.0710 
      6 C6          7.1072   10.1629    8.5391 C.ar      1 <1>        -0.0079 
      7 C7          6.1607   11.0447    7.7641 C.2       1 <1>         0.0280 
      8 C8          6.2442   10.6666    6.4777 C.2       1 <1>         0.0511 
      9 N9          7.1037    9.6853    6.3632 N.pl3     1 <1>        -0.2676 
     10 C10         5.3266   12.1039    8.3532 C.2       1 <1>         0.0871 
     11 N11         5.3283   12.3898    9.5847 N.2       1 <1>        -0.3306 
     12 C12         4.4586   13.4529   10.0169 C.2       1 <1>        -0.0289 
     13 C13         3.7996   13.9336    8.9562 C.2       1 <1>         0.0016 
     14 S14         4.2123   13.1149    7.4080 S.3       1 <1>        -0.0191 
     15 H1          7.0533   10.6863   10.6406 H         1 <1>         0.0544 
     16 H2          8.7445    8.9300   11.2152 H         1 <1>         0.0521 
     17 H3          9.7017    7.4792    9.4553 H         1 <1>         0.0538 
     18 H4          8.9975    7.7375    7.0663 H         1 <1>         0.0551 
     19 H5          5.6760   11.1180    5.6633 H         1 <1>         0.1089 
     20 H6          7.3434    9.2217    5.4733 H         1 <1>         0.2335 
     21 H7          4.3611   13.8014   11.0446 H         1 <1>         0.0549 
     22 H8          3.0771   14.7464    9.0155 H         1 <1>         0.0681 
@<TRIPOS>BOND
     1    2    1 ar   
     2    2    3 ar   
     3    3    4 ar   
     4    4    5 ar   
     5    5    6 ar   
     6    1    6 ar   
     7    6    7 1    
     8    7    8 2    
     9    8    9 1    
    10    5    9 1    
    11    7   10 1    
    12   10   11 2    
    13   11   12 1    
    14   12   13 2    
    15   13   14 1    
    16   10   14 1    
    17    1   15 1    
    18    2   16 1    
    19    3   17 1    
    20    4   18 1    
    21    8   19 1    
    22    9   20 1    
    23   12   21 1    
    24   13   22 1    
@<TRIPOS>SUBSTRUCTURE
     1 ****        2 TEMP              0 ****  ****    0 ROOT 
@<TRIPOS>NORMAL
@<TRIPOS>FF_PBC
FORCE_FIELD_SETUP_FEATURE Force Field Setup information
v1.0  0 0.000000 0.000000 0.000000 0.000000 0.000000 0.000000 NONE 0 0 0 0 1 0 0 0 0 0 0 0 0
