#	Name:			PISM00395
#	Creating user name:	malab
#	Creation time:		Tue Apr 02 19:22:01 2019

#	Modifying user name:	malab
#	Modification time:	Tue Apr 02 20:28:27 2019

@<TRIPOS>MOLECULE
PISM00395
   41    42     1     1     0
SMALL
GAST_HUCK


@<TRIPOS>ATOM
      1 N1          9.1301    1.3622    0.0599 N.2       1 <1>        -0.1722 
      2 C2         10.3477    0.9817    0.1404 C.2       1 <1>         0.0658 
      3 N3         10.6644    0.9226   -1.2540 N.2       1 <1>        -0.2821 
      4 C4          9.6720    1.2504   -1.9491 C.2       1 <1>         0.1498 
      5 N5          8.6426    1.5536   -1.2004 N.pl3     1 <1>        -0.1216 
      6 C6          7.4417    1.9485   -1.5670 C.2       1 <1>         0.1378 
      7 C7          6.4409    2.3243   -0.4641 C.3       1 <1>         0.1367 
      8 O8          6.6983    3.5193    0.3198 O.3       1 <1>        -0.3592 
      9 H1         10.9548    0.7679    1.0188 H         1 <1>         0.0882 
     10 H2          9.8050    1.2432   -3.0274 H         1 <1>         0.1391 
     11 C11         7.1028    2.0099   -2.8704 C.2       1 <1>        -0.0332 
     12 C12         5.3966    3.7951   -3.4097 C.ar      1 <1>        -0.0674 
     13 C13         4.1618    4.1895   -3.9342 C.ar      1 <1>        -0.0570 
     14 C14         3.2805    3.2320   -4.4429 C.ar      1 <1>         0.0313 
     15 C15         3.6342    1.8810   -4.4311 C.ar      1 <1>        -0.0570 
     16 C16         4.8824    1.4898   -3.9344 C.ar      1 <1>        -0.0674 
     17 Cl17        1.7299    3.7256   -5.0964 Cl        1 <1>        -0.0782 
     18 C18         5.7586    2.4452   -3.4133 C.ar      1 <1>        -0.0506 
     19 C19         5.6865    1.1586    0.2883 C.3       1 <1>         0.0050 
     20 C20         6.4942   -0.1735    0.3006 C.3       1 <1>        -0.0551 
     21 C21         5.3650    1.5502    1.7623 C.3       1 <1>        -0.0551 
     22 C22         4.3122    0.8609   -0.3950 C.3       1 <1>        -0.0551 
     23 H3          5.6235    2.8415   -0.9790 H         1 <1>         0.0855 
     24 C24         7.9484    3.6050    1.0286 C.3       1 <1>         0.0405 
     25 H5          7.7581    1.7365   -3.6906 H         1 <1>         0.0312 
     26 H6          6.0774    4.5373   -3.0054 H         1 <1>         0.0542 
     27 H7          3.8874    5.2399   -3.9496 H         1 <1>         0.0600 
     28 H8          2.9404    1.1374   -4.8093 H         1 <1>         0.0600 
     29 H9          5.1686    0.4429   -3.9544 H         1 <1>         0.0542 
     30 H10         5.9143   -0.9727    0.7928 H         1 <1>         0.0238 
     31 H11         7.4286   -0.0676    0.8641 H         1 <1>         0.0238 
     32 H12         6.7237   -0.5045   -0.7241 H         1 <1>         0.0238 
     33 H13         4.8262    2.5097    1.7991 H         1 <1>         0.0238 
     34 H14         6.2750    1.6362    2.3718 H         1 <1>         0.0238 
     35 H15         4.7344    0.7854    2.2410 H         1 <1>         0.0238 
     36 H16         4.4586    0.5811   -1.4451 H         1 <1>         0.0238 
     37 H17         3.6545    1.7416   -0.3553 H         1 <1>         0.0238 
     38 H18         3.7849    0.0336    0.1039 H         1 <1>         0.0238 
     39 H4          8.1379    2.7678    1.7152 H         1 <1>         0.0527 
     40 H19         7.9032    4.5222    1.6353 H         1 <1>         0.0527 
     41 H20         8.7848    3.7246    0.3214 H         1 <1>         0.0527 
@<TRIPOS>BOND
     1    2    1 2    
     2    2    3 1    
     3    3    4 2    
     4    4    5 1    
     5    1    5 1    
     6    5    6 1    
     7    6    7 1    
     8    7    8 1    
     9    2    9 1    
    10    4   10 1    
    11    7   23 1    
    12    6   11 2    
    13   18   12 ar   
    14   12   13 ar   
    15   13   14 ar   
    16   14   15 ar   
    17   15   16 ar   
    18   18   16 ar   
    19   11   18 1    
    20   14   17 1    
    21    7   19 1    
    22   19   20 1    
    23   19   21 1    
    24   19   22 1    
    25    8   24 1    
    26   11   25 1    
    27   12   26 1    
    28   13   27 1    
    29   15   28 1    
    30   16   29 1    
    31   20   30 1    
    32   20   31 1    
    33   20   32 1    
    34   21   33 1    
    35   21   34 1    
    36   21   35 1    
    37   22   36 1    
    38   22   37 1    
    39   22   38 1    
    40   24   39 1    
    41   24   40 1    
    42   24   41 1    
@<TRIPOS>SUBSTRUCTURE
     1 ****        2 TEMP              0 ****  ****    0 ROOT 
@<TRIPOS>NORMAL
@<TRIPOS>FF_PBC
FORCE_FIELD_SETUP_FEATURE Force Field Setup information
v1.0  0 0.000000 0.000000 0.000000 0.000000 0.000000 0.000000 NONE 0 0 0 0 1 0 0 0 0 0 0 0 0
