#	Name:			PISM01095
#	Creating user name:	Qinrunwen
#	Creation time:		Mon Apr 01 13:46:22 2019

#	Modifying user name:	Qinrunwen
#	Modification time:	Mon Apr 01 13:48:59 2019

@<TRIPOS>MOLECULE
PISM01095
   37    40     1     1     0
SMALL
GAST_HUCK


@<TRIPOS>ATOM
      1 C1         10.8234   28.0659    1.1021 C.ar      1 <1>        -0.0401 
      2 C2         11.4218   28.9304    2.0228 C.ar      1 <1>         0.0780 
      3 C3         11.5964   27.4510    0.1131 C.ar      1 <1>        -0.0400 
      4 C4         12.9675   27.7118    0.0382 C.ar      1 <1>         0.0894 
      5 C5         13.5819   28.5039    1.0126 C.ar      1 <1>        -0.0400 
      6 C6         12.8079   29.1193    2.0004 C.ar      1 <1>        -0.0401 
      7 O7         10.6295   29.5971    2.9566 O.3       1 <1>        -0.3392 
      8 N8         13.6949   27.2120   -0.9867 N.pl3     1 <1>        -0.1325 
      9 C9         14.1072   25.9792   -0.9400 C.2       1 <1>         0.2492 
     10 C10        14.9013   25.5230   -2.1274 C.3       1 <1>         0.1210 
     11 S11        14.9728   26.9713   -3.2168 S.3       1 <1>         0.0047 
     12 C12        14.0113   27.9049   -2.0506 C.2       1 <1>         0.2335 
     13 O13        13.8893   25.2099   -0.0186 O.2       1 <1>        -0.3656 
     14 N14        13.6893   29.1193   -2.2828 N.2       1 <1>        -0.2244 
     15 N15        12.9268   29.7886   -1.2917 N.2       1 <1>        -0.2407 
     16 C16        12.4368   30.9125   -1.6331 C.2       1 <1>         0.1325 
     17 C17        12.5597   31.6148   -2.9634 C.ar      1 <1>         0.0334 
     18 C18        11.8283   32.7803   -2.7724 C.ar      1 <1>         0.0736 
     19 N19        11.3079   32.8512   -1.5271 N.pl3     1 <1>        -0.2350 
     20 C20        11.6137   31.8132   -0.8013 C.2       1 <1>         0.2514 
     21 O21        11.2815   31.6195    0.3569 O.2       1 <1>        -0.3569 
     22 C22        13.1899   31.3365   -4.1783 C.ar      1 <1>        -0.0600 
     23 C23        13.0560   32.2797   -5.2051 C.ar      1 <1>        -0.0714 
     24 C24        12.3164   33.4564   -5.0154 C.ar      1 <1>        -0.0703 
     25 C25        11.6901   33.7234   -3.7915 C.ar      1 <1>        -0.0373 
     26 H1          9.7557   27.8799    1.1563 H         1 <1>         0.0520 
     27 H2         11.1345   26.7779   -0.6019 H         1 <1>         0.0530 
     28 H3         14.6571   28.6464    0.9928 H         1 <1>         0.0530 
     29 H4         13.2824   29.7456    2.7486 H         1 <1>         0.0520 
     30 H5         10.8646   30.5179    3.0043 H         1 <1>         0.2450 
     31 H6         14.3939   24.6868   -2.6303 H         1 <1>         0.0672 
     32 H7         15.9134   25.2214   -1.8203 H         1 <1>         0.0672 
     33 H8         10.7345   33.6329   -1.1805 H         1 <1>         0.2111 
     34 H9         13.7626   30.4294   -4.3320 H         1 <1>         0.0606 
     35 H10        13.5324   32.0963   -6.1635 H         1 <1>         0.0521 
     36 H11        12.2273   34.1712   -5.8281 H         1 <1>         0.0600 
     37 H12        11.1164   34.6313   -3.6380 H         1 <1>         0.0534 
@<TRIPOS>BOND
     1    2    1 ar   
     2    1    3 ar   
     3    3    4 ar   
     4    4    5 ar   
     5    5    6 ar   
     6    2    6 ar   
     7    2    7 1    
     8    4    8 1    
     9    8    9 1    
    10    9   10 1    
    11   10   11 1    
    12   11   12 1    
    13    8   12 1    
    14    9   13 2    
    15   12   14 2    
    16   14   15 1    
    17   15   16 2    
    18   16   17 1    
    19   17   18 ar   
    20   18   19 1    
    21   19   20 1    
    22   16   20 1    
    23   20   21 2    
    24   17   22 ar   
    25   22   23 ar   
    26   23   24 ar   
    27   24   25 ar   
    28   18   25 ar   
    29    1   26 1    
    30    3   27 1    
    31    5   28 1    
    32    6   29 1    
    33    7   30 1    
    34   10   31 1    
    35   10   32 1    
    36   19   33 1    
    37   22   34 1    
    38   23   35 1    
    39   24   36 1    
    40   25   37 1    
@<TRIPOS>SUBSTRUCTURE
     1 ****        2 TEMP              0 ****  ****    0 ROOT 
@<TRIPOS>NORMAL
@<TRIPOS>FF_PBC
FORCE_FIELD_SETUP_FEATURE Force Field Setup information
v1.0  0 0.000000 0.000000 0.000000 0.000000 0.000000 0.000000 NONE 0 0 0 0 1 0 0 0 0 0 0 0 0
