#	Name:			PISM00424
#	Creating user name:	malab
#	Creation time:		Wed Apr 10 23:27:48 2019

#	Modifying user name:	malab
#	Modification time:	Wed Apr 10 23:31:56 2019

@<TRIPOS>MOLECULE
PISM00424
   39    39     1     2     0
SMALL
USER_CHARGES


@<TRIPOS>ATOM
      1 C1        -13.7831   -0.2190    8.0087 C.3       1 <1>         0.0000 
      2 C2        -13.3344    1.2670    8.1259 C.3       1 <1>         0.0000 
      3 C3        -13.7322    1.8126    9.4691 C.2       1 <1>         0.0000 
      4 C4        -14.9403    1.3095   10.1423 C.2       1 <1>         0.0000 
      5 C5        -15.6964    0.3450    9.6000 C.2       1 <1>         0.0000 
      6 C6        -15.3290   -0.2876    8.2694 C.3       1 <1>         0.0000 
      7 C7        -12.9775   -1.0767    9.0354 C.3       1 <1>         0.0000 
      8 C8        -13.4425   -0.7329    6.5782 C.3       1 <1>         0.0000 
      9 O9        -13.0543    2.6753   10.0044 O.2       1 <1>         0.0000 
     10 C10       -16.9638   -0.1384   10.2736 C.3       1 <1>         0.0000 
     11 F11       -12.1036   -0.6412    6.3541 F         1 <1>         0.0000 
     12 H1        -13.8046    1.8952    7.3543 H         1 <1>         0.0000 
     13 H2        -12.2424    1.3458    8.0043 H         1 <1>         0.0000 
     14 C14       -15.8198   -1.7243    8.2462 C.2       1 <1>         0.0000 
     15 O15       -16.0336    0.5456    7.3298 O.3       1 <1>         0.0000 
     16 H3        -15.2050    1.7554   11.1010 H         1 <1>         0.0000 
     17 H4        -13.1259   -2.1533    8.8706 H         1 <1>         0.0000 
     18 H5        -13.2672   -0.8458   10.0708 H         1 <1>         0.0000 
     19 H6        -11.8986   -0.8839    8.9363 H         1 <1>         0.0000 
     20 F20       -14.0883    0.0100    5.6390 F         1 <1>         0.0000 
     21 F21       -13.8159   -2.0326    6.4283 F         1 <1>         0.0000 
     22 H9        -17.7803   -0.1861    9.5368 H         1 <1>         0.0000 
     23 H10       -17.2823    0.5336   11.0848 H         1 <1>         0.0000 
     24 H11       -16.8110   -1.1386   10.7043 H         1 <1>         0.0000 
     25 C25       -16.6792   -2.2393    7.3564 C.2       1 <1>         0.0000 
     26 H12       -15.4536   -2.3915    9.0254 H         1 <1>         0.0000 
     27 H13       -15.8488    0.3430    6.4198 H         1 <1>         0.0000 
     28 H14       -17.0977   -1.6269    6.5611 H         1 <1>         0.0000 
     29 C29       -17.1039   -3.6554    7.3932 C.2       1 <1>         0.0000 
     30 C30       -18.3817   -4.0186    7.2001 C.2       1 <1>         0.0000 
     31 C31       -19.5326   -3.1175    6.9840 C.2       1 <1>         0.0000 
     32 C32       -16.0561   -4.7176    7.6422 C.3       1 <1>         0.0000 
     33 O33       -20.5785   -3.5925    6.5660 O.2       1 <1>         0.0000 
     34 O34       -19.4298   -1.8119    7.2571 O.3       1 <1>         0.0000 
     35 H15       -18.6227   -5.0824    7.2072 H         1 <1>         0.0000 
     36 H16       -15.0461   -4.3369    7.4266 H         1 <1>         0.0000 
     37 H17       -16.2234   -5.5985    7.0033 H         1 <1>         0.0000 
     38 H18       -16.0993   -5.0297    8.6963 H         1 <1>         0.0000 
     39 H19       -20.2269   -1.3207    7.0871 H         1 <1>         0.0000 
@<TRIPOS>BOND
     1    2    1 1    
     2    2    3 1    
     3    3    4 1    
     4    4    5 2    
     5    5    6 1    
     6    1    6 1    
     7    1    7 1    
     8    1    8 1    
     9    3    9 2    
    10    5   10 1    
    11    8   11 1    
    12    2   12 1    
    13    2   13 1    
    14    6   14 1    
    15    6   15 1    
    16    4   16 1    
    17    7   17 1    
    18    7   18 1    
    19    7   19 1    
    20    8   20 1    
    21    8   21 1    
    22   10   22 1    
    23   10   23 1    
    24   10   24 1    
    25   14   25 2    
    26   14   26 1    
    27   15   27 1    
    28   25   28 1    
    29   25   29 1    
    30   29   30 2    
    31   30   31 1    
    32   29   32 1    
    33   31   33 2    
    34   31   34 1    
    35   30   35 1    
    36   32   36 1    
    37   32   37 1    
    38   32   38 1    
    39   34   39 1    
@<TRIPOS>SUBSTRUCTURE
     1 ****        2 TEMP              0 ****  ****    0 ROOT 
@<TRIPOS>NORMAL
@<TRIPOS>FF_PBC
FORCE_FIELD_SETUP_FEATURE Force Field Setup information
v1.0  0 0.000000 0.000000 0.000000 0.000000 0.000000 0.000000 NONE 0 0 0 0 0 0 0 0 0 0 0 0 0
@<TRIPOS>RENDERING_ATTRS
ANTIALIASED_LINES 
*
