#	Name:			PISM00043
#	Creating user name:	baoopengkun
#	Creation time:		Thu Dec 27 17:18:47 2018

#	Modifying user name:	baoopengkun
#	Modification time:	Thu Dec 27 17:44:46 2018

@<TRIPOS>MOLECULE
PISM00043
   96    97     1     1     0
SMALL
GAST_HUCK


@<TRIPOS>ATOM
      1 C1          9.4502   -1.4622   -0.0608 C.3       1 <1>        -0.0583 
      2 C2          8.5544   -0.2220    0.0380 C.ar      1 <1>        -0.1074 
      3 C3          8.5755    0.5470    1.2054 C.ar      1 <1>         0.0134 
      4 C4          7.7393    1.6675    1.3433 C.ar      1 <1>        -0.0259 
      5 C5          6.8823    2.0232    0.2852 C.ar      1 <1>        -0.1220 
      6 C6          6.8850    1.2582   -0.8885 C.ar      1 <1>        -0.1570 
      7 C7          7.7236    0.1508   -1.0208 C.ar      1 <1>        -0.1684 
      8 O8          9.4730    0.1910    2.2110 O.3       1 <1>        -0.3687 
      9 C9          7.8190    2.4545    2.6381 C.2       1 <1>         0.2022 
     10 O10         8.2858    1.8714    3.7393 O.3       1 <1>        -0.1308 
     11 O11         7.4816    3.6235    2.7147 O.2       1 <1>        -0.4391 
     12 C12         5.9257    3.2299    0.3650 C.3       1 <1>        -0.0453 
     13 C13         2.8733    3.8068    2.8690 C.3       1 <1>         0.0760 
     14 C14         2.4575    4.9714    3.8266 C.3       1 <1>         0.0562 
     15 C15         1.6728    6.0920    3.1664 C.2       1 <1>         0.1157 
     16 O16         0.8461    5.8496    2.3028 O.2       1 <1>        -0.3909 
     17 C17         1.9143    7.5246    3.6038 C.3       1 <1>         0.0591 
     18 C18         0.7506    8.4481    3.1305 C.3       1 <1>         0.0805 
     19 C19        -0.6966    8.0506    3.5234 C.3       1 <1>        -0.0124 
     20 C20        -1.4353    9.3786    3.2138 C.3       1 <1>        -0.0162 
     21 C21        -0.3855   10.4833    3.5423 C.3       1 <1>         0.0962 
     22 O22         0.8460    9.7549    3.7241 O.3       1 <1>        -0.3647 
     23 C23        -0.7371   11.1853    4.8966 C.3       1 <1>         0.0881 
     24 O24        -1.7450   12.1870    4.6461 O.3       1 <1>        -0.3680 
     25 C25        -2.2440   12.8492    5.8275 C.3       1 <1>         0.0850 
     26 C26        -1.0900   13.5750    6.5906 C.3       1 <1>         0.0917 
     27 C27         0.0695   12.5759    6.8751 C.3       1 <1>        -0.0191 
     28 C28         0.5011   11.8115    5.5960 C.3       1 <1>        -0.0212 
     29 C29        -1.6118   14.2342    7.9046 C.3       1 <1>        -0.0244 
     30 C30        -0.5716   15.1395    8.6199 C.3       1 <1>        -0.0626 
     31 O31        -0.6204   14.6599    5.7665 O.3       1 <1>        -0.3860 
     32 C32        -3.1293   11.8995    6.6841 C.3       1 <1>        -0.0360 
     33 H33        -1.1328   10.4259    5.5834 H         1 <1>         0.0625 
     34 C34        -0.2676   11.5482    2.4005 C.3       1 <1>        -0.0241 
     35 C35         0.4134   11.0728    1.0874 C.3       1 <1>        -0.0626 
     36 C36        -0.8217    7.6263    5.0126 C.3       1 <1>        -0.0598 
     37 C37         3.2858    8.0277    3.0475 C.3       1 <1>        -0.0347 
     38 C38         3.7308    9.4120    3.5950 C.3       1 <1>        -0.0628 
     39 C39         1.5897    4.4231    4.9949 C.3       1 <1>        -0.0440 
     40 O40         1.6915    3.2318    2.2816 O.3       1 <1>        -0.3889 
     41 C41         4.7514    2.9264    1.3389 C.3       1 <1>        -0.0431 
     42 C42         3.9558    4.1917    1.7993 C.3       1 <1>        -0.0141 
     43 C43         3.3548    4.9413    0.5758 C.3       1 <1>        -0.0598 
     44 H1         10.5052   -1.1526   -0.0218 H         1 <1>         0.0311 
     45 H2          9.2789   -2.0226   -0.9922 H         1 <1>         0.0311 
     46 H3          9.2407   -2.1277    0.7903 H         1 <1>         0.0311 
     47 H4          6.2314    1.5112   -1.7176 H         1 <1>         0.0162 
     48 H5          7.7233   -0.4138   -1.9471 H         1 <1>        -0.0202 
     49 H6          9.1186    0.3076    3.0870 H         1 <1>         0.2360 
     50 Na50        9.1328    2.0550   -0.7001 Na        0 <0>         1.0000 
     51 H8          5.5127    3.4461   -0.6321 H         1 <1>         0.0362 
     52 H9          6.4848    4.1280    0.6623 H         1 <1>         0.0362 
     53 H10         3.3215    3.0424    3.5284 H         1 <1>         0.0624 
     54 H11         3.3757    5.3578    4.2953 H         1 <1>         0.0552 
     55 H12         1.9544    7.5506    4.7029 H         1 <1>         0.0555 
     56 H13         0.7975    8.5065    2.0319 H         1 <1>         0.0627 
     57 H14        -1.1086    7.2381    2.8995 H         1 <1>         0.0326 
     58 H15        -2.3853    9.4862    3.7603 H         1 <1>         0.0297 
     59 H16        -1.6862    9.3911    2.1424 H         1 <1>         0.0297 
     60 H17        -2.9180   13.6284    5.4332 H         1 <1>         0.0622 
     61 H18        -0.2446   11.8484    7.6393 H         1 <1>         0.0294 
     62 H19         0.9477   13.1145    7.2633 H         1 <1>         0.0294 
     63 H20         1.2145   11.0181    5.8762 H         1 <1>         0.0292 
     64 H21         1.0342   12.4986    4.9258 H         1 <1>         0.0292 
     65 H22        -1.9387   13.4646    8.6216 H         1 <1>         0.0291 
     66 H23        -2.4826   14.8605    7.6497 H         1 <1>         0.0291 
     67 H24        -1.0493   15.6540    9.4690 H         1 <1>         0.0231 
     68 H25        -0.1788   15.9042    7.9324 H         1 <1>         0.0231 
     69 H26         0.2695   14.5517    9.0156 H         1 <1>         0.0231 
     70 H27        -0.3800   14.3845    4.8884 H         1 <1>         0.2103 
     71 H28        -3.7780   11.3156    6.0129 H         1 <1>         0.0255 
     72 H29        -3.7794   12.4743    7.3615 H         1 <1>         0.0255 
     73 H30        -2.5403   11.1994    7.2916 H         1 <1>         0.0255 
     74 H31         0.3236   12.4064    2.7499 H         1 <1>         0.0291 
     75 H32        -1.2763   11.9220    2.1598 H         1 <1>         0.0291 
     76 H34         1.4440   10.7424    1.2858 H         1 <1>         0.0231 
     77 H35         0.4609   11.9113    0.3740 H         1 <1>         0.0231 
     78 H36        -0.1393   10.2571    0.6006 H         1 <1>         0.0231 
     79 H37        -0.2434    8.2783    5.6818 H         1 <1>         0.0233 
     80 H38        -1.8762    7.6363    5.3276 H         1 <1>         0.0233 
     81 H39        -0.4503    6.6000    5.1326 H         1 <1>         0.0233 
     82 H40         3.2486    8.0768    1.9474 H         1 <1>         0.0291 
     83 H41         4.0834    7.3186    3.3154 H         1 <1>         0.0291 
     84 H42         3.6583    9.4352    4.6932 H         1 <1>         0.0231 
     85 H43         3.1245   10.2294    3.1806 H         1 <1>         0.0231 
     86 H44         4.7778    9.6077    3.3126 H         1 <1>         0.0231 
     87 H45         1.4083    5.2075    5.7448 H         1 <1>         0.0258 
     88 H46         2.0886    3.5868    5.5088 H         1 <1>         0.0258 
     89 H47         0.6208    4.0672    4.6112 H         1 <1>         0.0258 
     90 H48         1.8563    2.4594    1.7525 H         1 <1>         0.2100 
     91 H49         5.1713    2.4389    2.2322 H         1 <1>         0.0285 
     92 H50         4.0821    2.1986    0.8543 H         1 <1>         0.0285 
     93 H51         4.6876    4.8609    2.2833 H         1 <1>         0.0326 
     94 H52         4.1405    5.2693   -0.1188 H         1 <1>         0.0233 
     95 H53         2.8209    5.8479    0.8774 H         1 <1>         0.0233 
     96 H54         2.6553    4.2893    0.0319 H         1 <1>         0.0233 
@<TRIPOS>BOND
     1    2    1 1    
     2    3    2 ar   
     3    4    3 ar   
     4    5    4 ar   
     5    5    6 ar   
     6    6    7 ar   
     7    7    2 ar   
     8    3    8 1    
     9    4    9 1    
    10    9   10 1    
    11    9   11 2    
    12   12    5 1    
    13   41   12 1    
    14   13   14 1    
    15   14   15 1    
    16   15   16 2    
    17   15   17 1    
    18   17   18 1    
    19   18   19 1    
    20   19   20 1    
    21   21   20 1    
    22   22   21 1    
    23   18   22 1    
    24   21   23 1    
    25   23   24 1    
    26   24   25 1    
    27   25   26 1    
    28   27   26 1    
    29   28   27 1    
    30   23   28 1    
    31   26   29 1    
    32   29   30 1    
    33   26   31 1    
    34   25   32 1    
    35   23   33 1    
    36   21   34 1    
    37   34   35 1    
    38   19   36 1    
    39   17   37 1    
    40   37   38 1    
    41   14   39 1    
    42   13   40 1    
    43   42   41 1    
    44   13   42 1    
    45   42   43 1    
    46    1   44 1    
    47    1   45 1    
    48    1   46 1    
    49    6   47 1    
    50    7   48 1    
    51    8   49 1    
    52   12   51 1    
    53   12   52 1    
    54   13   53 1    
    55   14   54 1    
    56   17   55 1    
    57   18   56 1    
    58   19   57 1    
    59   20   58 1    
    60   20   59 1    
    61   25   60 1    
    62   27   61 1    
    63   27   62 1    
    64   28   63 1    
    65   28   64 1    
    66   29   65 1    
    67   29   66 1    
    68   30   67 1    
    69   30   68 1    
    70   30   69 1    
    71   31   70 1    
    72   32   71 1    
    73   32   72 1    
    74   32   73 1    
    75   34   74 1    
    76   34   75 1    
    77   35   76 1    
    78   35   77 1    
    79   35   78 1    
    80   36   79 1    
    81   36   80 1    
    82   36   81 1    
    83   37   82 1    
    84   37   83 1    
    85   38   84 1    
    86   38   85 1    
    87   38   86 1    
    88   39   87 1    
    89   39   88 1    
    90   39   89 1    
    91   40   90 1    
    92   41   91 1    
    93   41   92 1    
    94   42   93 1    
    95   43   94 1    
    96   43   95 1    
    97   43   96 1    
@<TRIPOS>SUBSTRUCTURE
     1 ****       13 TEMP              0 ****  ****    0 ROOT 
@<TRIPOS>NORMAL
@<TRIPOS>FF_PBC
FORCE_FIELD_SETUP_FEATURE Force Field Setup information
v1.0  0 0.000000 0.000000 0.000000 0.000000 0.000000 0.000000 NONE 0 0 0 0 1 0 0 0 0 0 0 0 0
