#	Name:			PISM01137
#	Creating user name:	14062
#	Creation time:		Sat Apr 06 23:30:40 2019

#	Modifying user name:	14062
#	Modification time:	Sat Apr 06 23:35:40 2019

@<TRIPOS>MOLECULE
PISM01137
   27    28     2     2     0
SMALL
GAST_HUCK


@<TRIPOS>ATOM
      1 S1        -20.3960    4.3693    0.8918 S.o2      1 BENZYL      0.0927 
      2 N2        -19.4972    5.4745    0.0865 N.am      1 BENZYL     -0.1562 
      3 C2        -19.6798    5.8363   -1.2731 C.ar      1 BENZYL      0.1479 
      4 C4        -20.5272    5.1339   -2.1358 C.ar      1 BENZYL      0.0219 
      5 C4        -20.6697    5.5906   -3.4489 C.ar      1 BENZYL      0.0135 
      6 C5        -19.9579    6.7198   -3.8597 C.ar      1 BENZYL      0.1372 
      7 N7        -19.1483    7.3449   -2.9815 N.ar      1 BENZYL     -0.2662 
      8 N8        -19.0014    6.9061   -1.7318 N.ar      1 BENZYL     -0.2857 
      9 O9        -20.2183    3.0799    0.2538 O.2       1 BENZYL     -0.1441 
     10 O10       -20.1187    4.5087    2.3072 O.2       1 BENZYL     -0.1441 
     11 Cl11      -20.1071    7.3227   -5.4961 Cl        1 BENZYL     -0.0163 
     12 C2        -22.3220    6.3267    0.6221 C.ar      2 BENZYL     -0.0464 
     13 C3        -22.0470    4.9572    0.5905 C.ar      2 BENZYL      0.1030 
     14 C4        -23.0838    4.0516    0.3508 C.ar      2 BENZYL     -0.0464 
     15 C5        -24.3794    4.5151    0.1039 C.ar      2 BENZYL     -0.0428 
     16 C6        -24.6557    5.8878    0.1066 C.ar      2 BENZYL      0.0353 
     17 C7        -23.6177    6.7888    0.3738 C.ar      2 BENZYL     -0.0428 
     18 H1        -18.7720    5.9427    0.5901 H         1 BENZYL      0.2365 
     19 N19       -25.9098    6.3385   -0.1443 N.pl3     2 BENZYL     -0.3369 
     20 H2        -21.0657    4.2523   -1.8123 H         1 BENZYL      0.0872 
     21 H3        -21.3233    5.0758   -4.1445 H         1 BENZYL      0.0855 
     22 H4        -21.5277    7.0327    0.8390 H         2 BENZYL      0.0602 
     23 H5        -22.8814    2.9858    0.3549 H         2 BENZYL      0.0602 
     24 H6        -25.1706    3.7980   -0.0906 H         2 BENZYL      0.0515 
     25 H7        -23.8106    7.8565    0.3904 H         2 BENZYL      0.0515 
     26 H8        -26.1127    7.3492   -0.1536 H         2 BENZYL      0.1719 
     27 H9        -26.6787    5.6770   -0.3284 H         2 BENZYL      0.1719 
@<TRIPOS>BOND
     1    2    3 1    
     2    3    4 ar   
     3    3    8 ar   
     4    8    7 ar   
     5    7    6 ar   
     6    6    5 ar   
     7    5    4 ar   
     8    2    1 1    
     9    1    9 2    
    10    1   10 2    
    11    1   13 1    
    12   12   13 ar   
    13   12   17 ar   
    14   17   16 ar   
    15   16   15 ar   
    16   15   14 ar   
    17   14   13 ar   
    18    6   11 1    
    19    2   18 1    
    20   16   19 1    
    21    4   20 1    
    22    5   21 1    
    23   12   22 1    
    24   14   23 1    
    25   15   24 1    
    26   17   25 1    
    27   19   26 1    
    28   19   27 1    
@<TRIPOS>SUBSTRUCTURE
     1 BENZYL      2 PERM              0 ****  ****    1 ROOT 
     2 BENZYL     12 PERM              0 ****  ****    1  
@<TRIPOS>NORMAL
@<TRIPOS>FF_PBC
FORCE_FIELD_SETUP_FEATURE Force Field Setup information
v1.0  0 0.000000 0.000000 0.000000 0.000000 0.000000 0.000000 NONE 0 0 0 0 1 0 0 0 0 0 0 0 0
@<TRIPOS>RENDERING_ATTRS
ANTIALIASED_LINES 
1,2,3,4,5,6,7,8,9,10,11,12,13,14,15,16,17,19
