#	Name:			PISM00484
#	Creating user name:	baoopengkun
#	Creation time:		Wed Feb 27 22:08:35 2019

#	Modifying user name:	baoopengkun
#	Modification time:	Wed Feb 27 22:15:55 2019

@<TRIPOS>MOLECULE
PISM00484
   12    12     1     1     0
SMALL
GAST_HUCK


@<TRIPOS>ATOM
      1 C1         27.7520    6.0578   -8.4158 C.2       1 <1>        -0.0378 
      2 C2         27.1448    7.4406   -8.2790 C.3       1 <1>         0.0630 
      3 C3         28.3027    7.0009   -9.1539 C.2       1 <1>        -0.0378 
      4 C4         25.8854    7.6604   -8.9789 C.1       1 <1>        -0.1579 
      5 C5         24.8453    7.8420   -9.5571 C.1       1 <1>        -0.1363 
      6 C6         27.4647    8.2739   -7.0194 C.3       1 <1>        -0.0791 
      7 H1         27.7351    5.0132   -8.1103 H         1 <1>         0.1211 
      8 H2         29.0591    7.2809   -9.8849 H         1 <1>         0.1211 
      9 H3         23.9328    8.0017  -10.0641 H         1 <1>         0.1212 
     10 H4         26.6803    8.1083   -6.2658 H         1 <1>         0.0075 
     11 H5         27.4896    9.3409   -7.2866 H         1 <1>         0.0075 
     12 H6         28.4382    7.9882   -6.5921 H         1 <1>         0.0075 
@<TRIPOS>BOND
     1    2    1 1    
     2    2    3 1    
     3    1    3 2    
     4    2    4 1    
     5    4    5 3    
     6    2    6 1    
     7    1    7 1    
     8    3    8 1    
     9    5    9 1    
    10    6   10 1    
    11    6   11 1    
    12    6   12 1    
@<TRIPOS>SUBSTRUCTURE
     1 ****        2 TEMP              0 ****  ****    0 ROOT 
@<TRIPOS>NORMAL
@<TRIPOS>FF_PBC
FORCE_FIELD_SETUP_FEATURE Force Field Setup information
v1.0  0 0.000000 0.000000 0.000000 0.000000 0.000000 0.000000 NONE 0 0 0 0 1 0 0 0 0 0 0 0 0
0
