#	Name:			PISM00949
#	Creating user name:	baoopengkun
#	Creation time:		Thu Dec 13 09:59:51 2018

#	Modifying user name:	baoopengkun
#	Modification time:	Thu Dec 13 10:03:02 2018

@<TRIPOS>MOLECULE
PISM00949
   47    48     1     1     0
SMALL
GAST_HUCK


@<TRIPOS>ATOM
      1 C1         -9.2684    3.6342   -2.5342 C.3       1 <1>        -0.0576 
      2 C2         -8.0430    2.9618   -1.8334 C.3       1 <1>        -0.0087 
      3 C3         -8.3729    2.8230   -0.3180 C.3       1 <1>        -0.0576 
      4 C4         -7.9044    1.5330   -2.4469 C.3       1 <1>        -0.0576 
      5 C5         -6.7503    3.8385   -2.0533 C.3       1 <1>         0.0926 
      6 O6         -6.9808    5.1901   -1.6105 O.3       1 <1>        -0.3880 
      7 C7         -5.4571    3.3834   -1.3046 C.3       1 <1>         0.1129 
      8 N8         -5.0766    2.0040   -1.5760 N.pl3     1 <1>        -0.1726 
      9 N9         -4.9488    1.0071   -0.6552 N.2       1 <1>        -0.1898 
     10 C10        -4.5720   -0.1061   -1.1650 C.2       1 <1>         0.0618 
     11 N11        -4.4534    0.2593   -2.5495 N.2       1 <1>        -0.2870 
     12 C12        -4.7494    1.4674   -2.7130 C.2       1 <1>         0.1282 
     13 C13        -4.1883    4.2314   -1.6330 C.3       1 <1>        -0.0151 
     14 C14        -4.2265    5.7161   -1.1699 C.3       1 <1>        -0.0220 
     15 C15        -2.8242    6.3735   -1.2486 C.3       1 <1>         0.0705 
     16 O16        -2.9528    7.7520   -0.8616 O.3       1 <1>        -0.3180 
     17 C17        -1.8635    8.6358   -0.8589 C.ar      1 <1>         0.0911 
     18 C18        -2.0931    9.9750   -0.5302 C.ar      1 <1>        -0.0331 
     19 C19        -1.0454   10.9001   -0.5182 C.ar      1 <1>        -0.0706 
     20 C20         0.2502   10.4855   -0.8361 C.ar      1 <1>        -0.0729 
     21 C21         0.4901    9.1479   -1.1620 C.ar      1 <1>        -0.0706 
     22 C22        -0.5605    8.2246   -1.1733 C.ar      1 <1>        -0.0331 
     23 H1         -9.0354    3.8523   -3.5877 H         1 <1>         0.0236 
     24 H2         -9.5663    4.5683   -2.0364 H         1 <1>         0.0236 
     25 H3        -10.1540    2.9806   -2.5124 H         1 <1>         0.0236 
     26 H4         -7.6111    2.2278    0.2066 H         1 <1>         0.0236 
     27 H5         -9.3408    2.3168   -0.1801 H         1 <1>         0.0236 
     28 H6         -8.4305    3.8145    0.1566 H         1 <1>         0.0236 
     29 H7         -7.5588    1.5896   -3.4901 H         1 <1>         0.0236 
     30 H8         -8.8688    1.0028   -2.4383 H         1 <1>         0.0236 
     31 H9         -7.2134    0.9026   -1.8760 H         1 <1>         0.0236 
     32 H10        -6.5046    3.8455   -3.1288 H         1 <1>         0.0631 
     33 H11        -7.5784    5.6970   -2.1494 H         1 <1>         0.2099 
     34 H12        -5.6326    3.4709   -0.2212 H         1 <1>         0.0705 
     35 H13        -4.3914   -1.0644   -0.6804 H         1 <1>         0.0863 
     36 H14        -4.7242    1.9625   -3.6827 H         1 <1>         0.1361 
     37 H15        -3.9848    4.2015   -2.7150 H         1 <1>         0.0298 
     38 H16        -3.3425    3.7430   -1.1204 H         1 <1>         0.0298 
     39 H17        -4.5905    5.7837   -0.1319 H         1 <1>         0.0292 
     40 H18        -4.8920    6.3093   -1.8160 H         1 <1>         0.0292 
     41 H19        -2.4470    6.3048   -2.2821 H         1 <1>         0.0614 
     42 H20        -2.1354    5.8530   -0.5633 H         1 <1>         0.0614 
     43 H21        -3.0999   10.2945   -0.2824 H         1 <1>         0.0542 
     44 H22        -1.2379   11.9378   -0.2627 H         1 <1>         0.0589 
     45 H23         1.0678   11.2001   -0.8299 H         1 <1>         0.0523 
     46 H24         1.4977    8.8255   -1.4074 H         1 <1>         0.0589 
     47 H25        -0.3354    7.1967   -1.4292 H         1 <1>         0.0542 
@<TRIPOS>BOND
     1    2    1 1    
     2    2    3 1    
     3    2    4 1    
     4    2    5 1    
     5    5    6 1    
     6    5    7 1    
     7    7    8 1    
     8    8    9 1    
     9    9   10 2    
    10   10   11 1    
    11   11   12 2    
    12    8   12 1    
    13    7   13 1    
    14   13   14 1    
    15   14   15 1    
    16   15   16 1    
    17   16   17 1    
    18   17   18 ar   
    19   18   19 ar   
    20   19   20 ar   
    21   20   21 ar   
    22   21   22 ar   
    23   17   22 ar   
    24    1   23 1    
    25    1   24 1    
    26    1   25 1    
    27    3   26 1    
    28    3   27 1    
    29    3   28 1    
    30    4   29 1    
    31    4   30 1    
    32    4   31 1    
    33    5   32 1    
    34    6   33 1    
    35    7   34 1    
    36   10   35 1    
    37   12   36 1    
    38   13   37 1    
    39   13   38 1    
    40   14   39 1    
    41   14   40 1    
    42   15   41 1    
    43   15   42 1    
    44   18   43 1    
    45   19   44 1    
    46   20   45 1    
    47   21   46 1    
    48   22   47 1    
@<TRIPOS>SUBSTRUCTURE
     1 ****        2 TEMP              0 ****  ****    0 ROOT 
@<TRIPOS>NORMAL
@<TRIPOS>FF_PBC
FORCE_FIELD_SETUP_FEATURE Force Field Setup information
v1.0  0 0.000000 0.000000 0.000000 0.000000 0.000000 0.000000 NONE 0 0 0 0 1 0 0 0 0 0 0 0 0
