#	Name:			PISM00745
#	Creating user name:	baoopengkun
#	Creation time:		Thu Jan 24 23:34:36 2019

#	Modifying user name:	baoopengkun
#	Modification time:	Thu Jan 24 23:36:18 2019

@<TRIPOS>MOLECULE
PISM00745
   49    52     1     1     0
SMALL
GAST_HUCK


@<TRIPOS>ATOM
      1 O1         -8.4685   13.1266    2.7842 O.3       1 <1>        -0.3871 
      2 C2         -8.5664   14.4650    3.3110 C.3       1 <1>         0.0910 
      3 C3         -8.2320   14.4485    4.8222 C.3       1 <1>         0.0896 
      4 C4         -6.8628   13.7525    5.0151 C.3       1 <1>         0.0052 
      5 C5         -5.7840   14.3058    4.0738 C.ar      1 <1>        -0.0073 
      6 C6         -6.1089   15.0845    2.9535 C.ar      1 <1>        -0.0296 
      7 C7         -7.5668   15.4061    2.5923 C.3       1 <1>         0.0065 
      8 O8         -9.2684   13.7483    5.5370 O.3       1 <1>        -0.3874 
      9 C9         -4.4462   14.0084    4.3616 C.ar      1 <1>         0.0848 
     10 C10        -3.4280   14.4977    3.5343 C.ar      1 <1>        -0.0438 
     11 C11        -3.7461   15.2926    2.4314 C.ar      1 <1>        -0.0669 
     12 C12        -5.0814   15.5859    2.1453 C.ar      1 <1>         0.0097 
     13 O13        -4.1480   13.2198    5.4782 O.3       1 <1>        -0.3375 
     14 C14        -5.3745   16.4157    1.0052 C.1       1 <1>        -0.0799 
     15 C15        -5.6108   17.1076    0.0501 C.1       1 <1>        -0.0771 
     16 C16        -5.8774   17.9341   -1.0993 C.ar      1 <1>         0.0169 
     17 C17        -7.1234   18.5554   -1.2168 C.ar      1 <1>        -0.0608 
     18 C18        -7.3871   19.3798   -2.3128 C.ar      1 <1>        -0.0748 
     19 C19        -6.4025   19.5771   -3.2839 C.ar      1 <1>        -0.0671 
     20 C20        -5.1547   18.9528   -3.1715 C.ar      1 <1>        -0.0375 
     21 C21        -4.8940   18.1121   -2.0807 C.ar      1 <1>        -0.0232 
     22 C22        -3.5505   17.3833   -1.9273 C.3       1 <1>         0.0085 
     23 C23        -2.7064   17.3927   -3.2246 C.3       1 <1>         0.0914 
     24 C24        -2.6773   18.8283   -3.8091 C.3       1 <1>         0.0912 
     25 C25        -4.1055   19.2117   -4.2603 C.3       1 <1>         0.0070 
     26 O26        -3.2848   16.4669   -4.1627 O.3       1 <1>        -0.3871 
     27 O27        -1.8157   18.9076   -4.9607 O.3       1 <1>        -0.3872 
     28 H1         -8.6926   13.0628    1.8614 H         1 <1>         0.2101 
     29 H2         -9.5984   14.8398    3.1848 H         1 <1>         0.0642 
     30 H3         -8.1793   15.4893    5.1898 H         1 <1>         0.0639 
     31 H4         -6.5471   13.8719    6.0637 H         1 <1>         0.0413 
     32 H5         -6.9665   12.6763    4.8076 H         1 <1>         0.0413 
     33 H6         -7.7532   16.4511    2.8865 H         1 <1>         0.0440 
     34 H7         -7.7228   15.3226    1.5052 H         1 <1>         0.0440 
     35 H8         -9.1096   13.6977    6.4742 H         1 <1>         0.2101 
     36 H9         -2.3876   14.2665    3.7385 H         1 <1>         0.0476 
     37 H10        -2.9559   15.6825    1.7969 H         1 <1>         0.0532 
     38 H11        -3.2191   13.0976    5.6386 H         1 <1>         0.2463 
     39 H12        -7.8849   18.3989   -0.4591 H         1 <1>         0.0546 
     40 H13        -8.3533   19.8653   -2.4091 H         1 <1>         0.0542 
     41 H14        -6.6142   20.2207   -4.1322 H         1 <1>         0.0534 
     42 H15        -3.7154   16.3339   -1.6352 H         1 <1>         0.0441 
     43 H16        -3.0010   17.8890   -1.1175 H         1 <1>         0.0441 
     44 H17        -1.6798   17.0649   -2.9791 H         1 <1>         0.0642 
     45 H18        -2.3377   19.5391   -3.0343 H         1 <1>         0.0642 
     46 H19        -4.3881   18.6157   -5.1417 H         1 <1>         0.0436 
     47 H20        -4.1092   20.2746   -4.5496 H         1 <1>         0.0436 
     48 H21        -2.8093   16.4481   -4.9883 H         1 <1>         0.2101 
     49 H22        -0.9054   18.7070   -4.7665 H         1 <1>         0.2101 
@<TRIPOS>BOND
     1    2    1 1    
     2    2    3 1    
     3    3    4 1    
     4    4    5 1    
     5    5    6 ar   
     6    6    7 1    
     7    2    7 1    
     8    3    8 1    
     9    5    9 ar   
    10    9   10 ar   
    11   10   11 ar   
    12   11   12 ar   
    13    6   12 ar   
    14    9   13 1    
    15   12   14 1    
    16   14   15 3    
    17   15   16 1    
    18   16   17 ar   
    19   17   18 ar   
    20   18   19 ar   
    21   19   20 ar   
    22   20   21 ar   
    23   16   21 ar   
    24   21   22 1    
    25   22   23 1    
    26   23   24 1    
    27   24   25 1    
    28   20   25 1    
    29   23   26 1    
    30   24   27 1    
    31    1   28 1    
    32    2   29 1    
    33    3   30 1    
    34    4   31 1    
    35    4   32 1    
    36    7   33 1    
    37    7   34 1    
    38    8   35 1    
    39   10   36 1    
    40   11   37 1    
    41   13   38 1    
    42   17   39 1    
    43   18   40 1    
    44   19   41 1    
    45   22   42 1    
    46   22   43 1    
    47   23   44 1    
    48   24   45 1    
    49   25   46 1    
    50   25   47 1    
    51   26   48 1    
    52   27   49 1    
@<TRIPOS>SUBSTRUCTURE
     1 ****        2 TEMP              0 ****  ****    0 ROOT 
@<TRIPOS>NORMAL
@<TRIPOS>FF_PBC
FORCE_FIELD_SETUP_FEATURE Force Field Setup information
v1.0  0 0.000000 0.000000 0.000000 0.000000 0.000000 0.000000 NONE 0 0 0 0 1 0 0 0 0 0 0 0 0
