#	Name:			PISM00872.1
#	Creating user name:	baoopengkun
#	Creation time:		Thu Dec 13 23:15:37 2018

#	Modifying user name:	baoopengkun
#	Modification time:	Thu Dec 13 23:54:04 2018

@<TRIPOS>MOLECULE
PISM00872.1
   24    25     1     1     0
SMALL
GAST_HUCK


@<TRIPOS>ATOM
      1 H2          1.4774    0.1669    1.5651 H         1 <1>         0.0541 
      2 C2          2.9911   -1.3132    1.9822 C.ar      1 <1>        -0.0340 
      3 C3          4.3093   -1.7139    1.7499 C.ar      1 <1>         0.1230 
      4 C4          5.1348   -0.9553    0.9165 C.ar      1 <1>        -0.0274 
      5 C5          4.6402    0.2012    0.3065 C.ar      1 <1>         0.0393 
      6 C6          3.3189    0.5995    0.5340 C.ar      1 <1>         0.1041 
      7 C7          2.4973   -0.1529    1.3784 C.ar      1 <1>        -0.0314 
      8 Br8         5.7343    1.2025   -0.8044 Br        1 <1>        -0.0589 
      9 O9          2.8228    1.7481   -0.0799 O.3       1 <1>        -0.2713 
     10 C10         2.0034    1.5035   -1.2323 C.3       1 <1>         0.2357 
     11 O11         1.6563    2.7844   -1.7939 O.3       1 <1>        -0.2313 
     12 C12         2.2554    2.8225   -2.9777 C.2       1 <1>         0.2494 
     13 C13         2.9784    1.6132   -3.3544 C.2       1 <1>         0.0292 
     14 C14         2.8048    0.8086   -2.3083 C.2       1 <1>        -0.0019 
     15 C15         3.7290    1.3335   -4.6274 C.3       1 <1>        -0.0323 
     16 O16         2.1923    3.8010   -3.7018 O.2       1 <1>        -0.3691 
     17 H1          2.3562   -1.9060    2.6325 H         1 <1>         0.0601 
     18 F18         4.7786   -2.8187    2.3227 F         1 <1>        -0.1922 
     19 H3          6.1589   -1.2690    0.7463 H         1 <1>         0.0603 
     20 H4          1.0862    0.9472   -0.9791 H         1 <1>         0.1199 
     21 H5          3.1955   -0.2056   -2.2361 H         1 <1>         0.0705 
     22 H6          3.4538    0.3426   -5.0184 H         1 <1>         0.0347 
     23 H7          4.8102    1.3550   -4.4254 H         1 <1>         0.0347 
     24 H8          3.4910    2.0947   -5.3855 H         1 <1>         0.0347 
@<TRIPOS>BOND
     1    7    1 1    
     2    3    2 ar   
     3    4    3 ar   
     4    5    4 ar   
     5    6    5 ar   
     6    6    7 ar   
     7    2    7 ar   
     8    5    8 1    
     9    6    9 1    
    10    9   10 1    
    11   10   11 1    
    12   11   12 1    
    13   12   13 1    
    14   13   14 2    
    15   10   14 1    
    16   13   15 1    
    17   12   16 2    
    18    2   17 1    
    19    3   18 1    
    20    4   19 1    
    21   10   20 1    
    22   14   21 1    
    23   15   22 1    
    24   15   23 1    
    25   15   24 1    
@<TRIPOS>SUBSTRUCTURE
     1 ****        2 TEMP              0 ****  ****    0 ROOT 
@<TRIPOS>NORMAL
@<TRIPOS>FF_PBC
FORCE_FIELD_SETUP_FEATURE Force Field Setup information
v1.0  0 0.000000 0.000000 0.000000 0.000000 0.000000 0.000000 NONE 0 0 0 0 1 0 0 0 0 0 0 0 0
