#	Name:			PISM00548
#	Creating user name:	baoopengkun
#	Creation time:		Sat Dec 15 14:51:35 2018

#	Modifying user name:	baoopengkun
#	Modification time:	Sat Dec 15 14:55:49 2018

@<TRIPOS>MOLECULE
PISM00548
   32    33     1     1     0
SMALL
GAST_HUCK


@<TRIPOS>ATOM
      1 H1          4.6724    8.4207   15.8157 H         1 <1>         0.0475 
      2 H2          5.7369    7.8527   17.1338 H         1 <1>         0.0475 
      3 H3          7.7474    8.7594   16.0049 H         1 <1>         0.0312 
      4 H4          6.5445   10.0628   16.2310 H         1 <1>         0.0312 
      5 H5          7.5694   10.0940   13.9252 H         1 <1>         0.0475 
      6 H6          5.8064    9.8150   13.8305 H         1 <1>         0.0475 
      7 C7          5.6854    8.0601   16.0524 C.3       1 <1>         0.0166 
      8 C8          6.7537    9.1232   15.6924 C.3       1 <1>        -0.0242 
      9 C9          6.7623    9.3828   14.1650 C.3       1 <1>         0.0166 
     10 C10         6.9979    8.0981   13.4180 C.2       1 <1>         0.1090 
     11 C11         6.6104    6.7897   13.9815 C.2       1 <1>         0.0864 
     12 C12         5.9309    6.7835   15.2929 C.2       1 <1>         0.1090 
     13 O13         5.5591    5.7281   15.7798 O.2       1 <1>        -0.4046 
     14 O14         7.5259    8.1303   12.3165 O.2       1 <1>        -0.4046 
     15 C15         6.8632    5.6456   13.3239 C.2       1 <1>         0.0700 
     16 N16         7.4594    5.6129   12.1560 N.pl3     1 <1>        -0.2483 
     17 C17         7.7109    4.4501   11.5041 C.ar      1 <1>         0.1012 
     18 C18         8.2234    3.3342   12.1770 C.ar      1 <1>        -0.0063 
     19 C19         8.4252    2.1315   11.4939 C.ar      1 <1>        -0.0389 
     20 C20         8.1541    2.0479   10.1255 C.ar      1 <1>        -0.0409 
     21 C21         7.6881    3.1708    9.4330 C.ar      1 <1>         0.0390 
     22 C22         7.4637    4.3631   10.1297 C.ar      1 <1>        -0.0064 
     23 C23         7.4167    3.1167    7.9251 C.3       1 <1>         0.3740 
     24 F24         8.0434    2.0564    7.3474 F         1 <1>        -0.2206 
     25 F25         7.8617    4.2599    7.3372 F         1 <1>        -0.2206 
     26 F26         6.0771    3.0061    7.7236 F         1 <1>        -0.2206 
     27 H7          6.5396    4.7200   13.8051 H         1 <1>         0.1322 
     28 H8          7.7313    6.5063   11.6975 H         1 <1>         0.2284 
     29 H9          8.4772    3.3944   13.2303 H         1 <1>         0.0798 
     30 H10         8.7958    1.2604   12.0267 H         1 <1>         0.0675 
     31 H11         8.3075    1.1068    9.6062 H         1 <1>         0.0775 
     32 H12         7.0872    5.2313    9.5983 H         1 <1>         0.0764 
@<TRIPOS>BOND
     1    7    1 1    
     2    7    2 1    
     3    8    3 1    
     4    8    4 1    
     5    9    5 1    
     6    9    6 1    
     7   15   27 1    
     8    7    8 1    
     9    8    9 1    
    10    9   10 1    
    11   11   10 1    
    12   12   11 1    
    13    7   12 1    
    14   12   13 2    
    15   10   14 2    
    16   11   15 2    
    17   15   16 1    
    18   16   17 1    
    19   17   18 ar   
    20   18   19 ar   
    21   19   20 ar   
    22   21   20 ar   
    23   22   21 ar   
    24   17   22 ar   
    25   21   23 1    
    26   23   24 1    
    27   23   25 1    
    28   23   26 1    
    29   16   28 1    
    30   18   29 1    
    31   19   30 1    
    32   20   31 1    
    33   22   32 1    
@<TRIPOS>SUBSTRUCTURE
     1 ****        7 TEMP              0 ****  ****    0 ROOT 
@<TRIPOS>NORMAL
@<TRIPOS>FF_PBC
FORCE_FIELD_SETUP_FEATURE Force Field Setup information
v1.0  0 0.000000 0.000000 0.000000 0.000000 0.000000 0.000000 NONE 0 0 0 0 1 0 0 0 0 0 0 0 0
