#	Name:			PISM00180
#	Creating user name:	14062
#	Creation time:		Fri Jul 12 13:23:59 2019

#	Modifying user name:	14062
#	Modification time:	Fri Jul 12 13:24:04 2019

@<TRIPOS>MOLECULE
PISM00180
  101   104     1     2     0
SMALL
GAST_HUCK


@<TRIPOS>ATOM
      1 C1          3.5258    5.9622   -7.5405 C.2       1 <1>        -0.0173 
      2 H1          6.1565    5.5494   -6.2865 H         1 <1>         0.0707 
      3 C3          5.9411    5.1861   -7.3056 C.3       1 <1>         0.1307 
      4 C4          6.3783    6.4780   -8.1003 C.3       1 <1>         0.1200 
      5 C5          5.2544    7.5533   -8.0873 C.3       1 <1>         0.0164 
      6 C6          3.9998    6.8553   -8.6615 C.3       1 <1>         0.1213 
      7 C7          3.1937    8.0539   -9.0973 C.2       1 <1>         0.1138 
      8 C8          4.0337    9.2721   -9.3640 C.3       1 <1>         0.0206 
      9 C9          5.4662    8.7355   -9.0835 C.3       1 <1>        -0.0089 
     10 C10         2.4497    6.2938   -6.8064 C.2       1 <1>        -0.0389 
     11 O11         1.9801    8.0517   -9.2273 O.2       1 <1>        -0.3591 
     12 C12         3.8961    3.2788   -7.7215 C.3       1 <1>         0.0268 
     13 C13         4.6653    2.2450   -6.7925 C.3       1 <1>        -0.0539 
     14 O14         6.9370    4.1454   -7.2709 O.3       1 <1>        -0.2696 
     15 H2          6.5860    6.2484   -9.1547 H         1 <1>         0.0677 
     16 H3          3.9098    9.6323  -10.3975 H         1 <1>         0.0494 
     17 O17         7.5247    7.1374   -7.5083 O.3       1 <1>        -0.2688 
     18 C18         5.0327    8.1376   -6.6477 C.3       1 <1>        -0.0627 
     19 O19         4.3167    6.0425   -9.8073 O.3       1 <1>        -0.4305 
     20 H4          3.7183   10.0650   -8.6723 H         1 <1>         0.0494 
     21 H5          5.8587    8.3475  -10.0369 H         1 <1>         0.0414 
     22 C22         6.4859    9.7558   -8.6412 C.2       1 <1>        -0.0472 
     23 H6          2.1129    5.6975   -5.9593 H         1 <1>         0.1265 
     24 H7          1.8518    7.1819   -6.9968 H         1 <1>         0.1265 
     25 H8          4.4068    1.1972   -6.9777 H         1 <1>         0.0238 
     26 H9          4.4611    2.4058   -5.7225 H         1 <1>         0.0238 
     27 H10         5.7514    2.2788   -6.8615 H         1 <1>         0.0238 
     28 C30         8.7248    6.6144   -7.8003 C.2       1 <1>         0.2635 
     29 O31         8.8926    5.7450   -8.6396 O.2       1 <1>        -0.3675 
     30 C32         9.8985    7.1892   -7.0353 C.3       1 <1>         0.1574 
     31 C33         6.3657   10.8213   -7.8454 C.2       1 <1>         0.0719 
     32 O34         7.4812   11.5296   -7.6420 O.3       1 <1>        -0.2806 
     33 C35         8.3643   10.8437   -8.3769 C.2       1 <1>         0.0724 
     34 C36         7.8938    9.7766   -9.0244 C.2       1 <1>        -0.0638 
     35 C37         7.3436    3.6457   -8.4446 C.2       1 <1>         0.2284 
     36 O38         8.0380    2.6437   -8.4145 O.2       1 <1>        -0.3548 
     37 C39         2.3826    3.0462   -7.3078 C.3       1 <1>         0.1136 
     38 C40         1.7545    1.7165   -7.8158 C.3       1 <1>         0.0802 
     39 C41         1.1973    1.8622   -9.2021 C.2       1 <1>         0.2397 
     40 O42         2.0306    1.9196  -10.2379 O.3       1 <1>        -0.2375 
     41 C43         2.9056    3.0664  -10.2996 C.3       1 <1>         0.2263 
     42 C44         4.1153    2.9876   -9.2785 C.3       1 <1>         0.0501 
     43 O45        -0.0069    1.8676   -9.3949 O.2       1 <1>        -0.3702 
     44 C46         4.3978    4.7390   -7.2589 C.3       1 <1>         0.0355 
     45 H15        10.7428    6.4842   -7.1290 H         1 <1>         0.0856 
     46 C48         9.5832    7.3448   -5.5175 C.3       1 <1>         0.0007 
     47 H11         4.2039    8.8587   -6.6333 H         1 <1>         0.0227 
     48 H12         5.9375    8.6550   -6.2979 H         1 <1>         0.0227 
     49 H13         4.8023    7.3807   -5.8873 H         1 <1>         0.0227 
     50 H14         4.5492    6.5167  -10.5988 H         1 <1>         0.1905 
     51 O51        10.2872    8.4654   -7.5862 O.3       1 <1>        -0.3696 
     52 O54         1.5096    4.0866   -7.7739 O.3       1 <1>        -0.2705 
     53 H16         5.4369   11.1259   -7.3670 H         1 <1>         0.0827 
     54 H17         9.4090   11.1470   -8.4401 H         1 <1>         0.0945 
     55 H18         8.4172    9.0816   -9.6795 H         1 <1>         0.0307 
     56 C58         2.1243    4.4147  -10.4591 C.3       1 <1>        -0.0013 
     57 O59         3.5379    2.8627  -11.5863 O.3       1 <1>        -0.2379 
     58 H19         7.1293    4.0410   -9.4342 H         1 <1>         0.1697 
     59 C61         4.8760    1.6434   -9.5884 C.3       1 <1>         0.0579 
     60 C62         0.2734    4.1126   -7.2539 C.2       1 <1>         0.2310 
     61 O63        -0.0605    3.4684   -6.2731 O.2       1 <1>        -0.3707 
     62 C64        -0.6971    5.0014   -7.9774 C.3       1 <1>         0.0372 
     63 C65         2.7276    2.7078  -12.6463 C.2       1 <1>         0.2338 
     64 O66         1.5113    2.7999  -12.6175 O.2       1 <1>        -0.3706 
     65 C67         3.4388    2.4034  -13.9326 C.3       1 <1>         0.0373 
     66 C68         5.5548    1.5356  -10.9314 C.2       1 <1>         0.2339 
     67 O69         5.3470    0.5956  -11.6830 O.2       1 <1>        -0.3704 
     68 O70         6.4067    2.5292  -11.2205 O.3       1 <1>        -0.2802 
     69 C71         7.1276    2.3371  -12.4520 C.3       1 <1>         0.0658 
     70 H20         2.3329    3.0591   -6.2043 H         1 <1>         0.0684 
     71 H21         0.9093    1.4339   -7.1693 H         1 <1>         0.0548 
     72 H22         2.4138    0.8448   -7.8229 H         1 <1>         0.0548 
     73 H23         4.8108    3.7617   -9.6122 H         1 <1>         0.0394 
     74 H24         4.2135    4.6387   -6.1756 H         1 <1>         0.0503 
     75 H25         8.6913    7.9875   -5.4210 H         1 <1>         0.0349 
     76 C76         9.2766    5.9577   -4.8821 C.3       1 <1>        -0.0578 
     77 H27         1.0552    4.2151  -10.6234 H         1 <1>         0.0289 
     78 H28         2.4896    4.9861  -11.3261 H         1 <1>         0.0289 
     79 H29         2.1946    5.0988   -9.6190 H         1 <1>         0.0289 
     80 H30         5.7489    1.4683   -8.9522 H         1 <1>         0.0523 
     81 H31         4.1998    0.7843   -9.4745 H         1 <1>         0.0523 
     82 H32        -0.1784    5.8662   -8.4176 H         1 <1>         0.0483 
     83 H33        -1.4694    5.3625   -7.2826 H         1 <1>         0.0483 
     84 H34        -1.1753    4.4217   -8.7802 H         1 <1>         0.0483 
     85 H35         3.9741    1.4479  -13.8360 H         1 <1>         0.0483 
     86 H36         4.1566    3.2065  -14.1525 H         1 <1>         0.0483 
     87 C89        10.7674    8.0575   -4.7940 C.3       1 <1>        -0.0487 
     88 C90        10.5224    8.2967   -3.2799 C.3       1 <1>        -0.0648 
     89 H26        10.5530    8.4033   -8.4988 H         1 <1>         0.2135 
     90 H37         2.7206    2.3280  -14.7625 H         1 <1>         0.0483 
     91 H38         7.7416    1.4231  -12.4112 H         1 <1>         0.0577 
     92 H39         7.7967    3.1994  -12.5877 H         1 <1>         0.0577 
     93 H40         6.4494    2.2837  -13.3169 H         1 <1>         0.0577 
     94 H41        10.9293    9.0441   -5.2598 H         1 <1>         0.0268 
     95 H42        11.6914    7.4694   -4.9195 H         1 <1>         0.0268 
     96 H43         9.5611    8.8100   -3.1226 H         1 <1>         0.0230 
     97 H44        11.3255    8.9274   -2.8661 H         1 <1>         0.0230 
     98 H45        10.5195    7.3501   -2.7191 H         1 <1>         0.0230 
     99 H46         8.8790    6.0682   -3.8624 H         1 <1>         0.0235 
    100 H47        10.1900    5.3448   -4.8418 H         1 <1>         0.0235 
    101 H48         8.5241    5.4103   -5.4664 H         1 <1>         0.0235 
@<TRIPOS>BOND
     1   12   13 1    
     2    3    2 1    
     3    4    3 1    
     4    5    4 1    
     5    6    5 1    
     6    1    6 1    
     7    6    7 1    
     8    7   11 2    
     9    8    9 1    
    10    5    9 1    
    11    1   10 2    
    12    7    8 1    
    13   59   66 1    
    14   66   67 2    
    15    3   14 1    
    16    4   15 1    
    17    8   16 1    
    18    4   17 1    
    19    5   18 1    
    20    6   19 1    
    21    8   20 1    
    22    9   21 1    
    23    9   22 1    
    24   10   23 1    
    25   10   24 1    
    26   13   25 1    
    27   13   26 1    
    28   13   27 1    
    29   17   28 1    
    30   28   29 2    
    31   28   30 1    
    32   22   31 2    
    33   31   32 1    
    34   33   32 1    
    35   34   33 2    
    36   22   34 1    
    37   14   35 1    
    38   35   36 2    
    39   12   37 1    
    40   37   38 1    
    41   38   39 1    
    42   40   39 1    
    43   41   40 1    
    44   42   41 1    
    45   12   42 1    
    46   39   43 2    
    47   44   12 1    
    48   30   45 1    
    49   30   46 1    
    50   18   47 1    
    51   18   48 1    
    52   18   49 1    
    53   19   50 1    
    54   30   51 1    
    55   37   52 1    
    56   31   53 1    
    57   33   54 1    
    58   34   55 1    
    59   41   56 1    
    60   41   57 1    
    61   35   58 1    
    62   42   59 1    
    63   52   60 1    
    64   60   61 2    
    65   60   62 1    
    66   57   63 1    
    67   63   64 2    
    68   63   65 1    
    69    1   44 1    
    70   44    3 1    
    71   66   68 1    
    72   68   69 1    
    73   37   70 1    
    74   38   71 1    
    75   38   72 1    
    76   42   73 1    
    77   44   74 1    
    78   46   75 1    
    79   46   76 1    
    80   56   77 1    
    81   56   78 1    
    82   56   79 1    
    83   59   80 1    
    84   59   81 1    
    85   62   82 1    
    86   62   83 1    
    87   62   84 1    
    88   65   85 1    
    89   65   86 1    
    90   46   87 1    
    91   87   88 1    
    92   51   89 1    
    93   65   90 1    
    94   69   91 1    
    95   69   92 1    
    96   69   93 1    
    97   87   94 1    
    98   87   95 1    
    99   88   96 1    
   100   88   97 1    
   101   88   98 1    
   102   76   99 1    
   103   76  100 1    
   104   76  101 1    
@<TRIPOS>SUBSTRUCTURE
     1 ****        1 TEMP              0 ****  ****    0 ROOT 
@<TRIPOS>NORMAL
@<TRIPOS>FF_PBC
FORCE_FIELD_SETUP_FEATURE Force Field Setup information
v1.0  0 0.000000 0.000000 0.000000 0.000000 0.000000 0.000000 NONE 0 0 0 0 1 0 0 0 0 0 0 0 0
@<TRIPOS>RENDERING_ATTRS
ANTIALIASED_LINES 
*
