#	Name:			PISM00024
#	Creating user name:	baoopengkun
#	Creation time:		Thu Dec 27 17:16:42 2018

#	Modifying user name:	baoopengkun
#	Modification time:	Thu Dec 27 17:18:17 2018

@<TRIPOS>MOLECULE
PISM00024
   39    42     1     1     0
SMALL
GAST_HUCK


@<TRIPOS>ATOM
      1 C1          3.9699    5.9848  -13.3372 C.3       1 <1>        -0.0364 
      2 C2          3.0056    5.1671  -14.2354 C.3       1 <1>        -0.0469 
      3 C3          2.1329    4.2462  -13.3481 C.3       1 <1>        -0.0419 
      4 C4          1.2360    5.1173  -12.4319 C.3       1 <1>        -0.0124 
      5 C5          2.0163    6.2326  -11.7880 C.2       1 <1>         0.0108 
      6 C6          3.2376    6.6198  -12.1819 C.2       1 <1>        -0.0460 
      7 S7          1.3212    7.1491  -10.4130 S.3       1 <1>        -0.0342 
      8 C8          2.7822    8.1311  -10.4235 C.ar      1 <1>         0.0800 
      9 C9          3.7618    7.7588  -11.3366 C.ar      1 <1>         0.0109 
     10 N10         2.9660    9.1890   -9.6119 N.ar      1 <1>        -0.3143 
     11 C11         4.0916    9.9283   -9.6913 C.ar      1 <1>         0.0255 
     12 C12         5.1613    9.5271  -10.5055 C.ar      1 <1>        -0.0065 
     13 C13         4.9898    8.4301  -11.3635 C.ar      1 <1>         0.0521 
     14 C14         6.5084   10.2647  -10.4470 C.3       1 <1>        -0.0332 
     15 N15         5.9909    8.0369  -12.1855 N.pl3     1 <1>        -0.3346 
     16 C16         4.1458   11.1705   -8.8836 C.ar      1 <1>        -0.0142 
     17 C17         4.3208   12.4115   -9.5040 C.ar      1 <1>        -0.0546 
     18 C18         4.0178   11.0984   -7.4934 C.ar      1 <1>        -0.0546 
     19 C19         4.0872   12.2622   -6.7219 C.ar      1 <1>        -0.0616 
     20 C20         4.2801   13.5004   -7.3417 C.ar      1 <1>        -0.0620 
     21 C21         4.3944   13.5753   -8.7331 C.ar      1 <1>        -0.0616 
     22 H1          4.4520    6.7606  -13.9531 H         1 <1>         0.0347 
     23 H2          4.7411    5.3128  -12.9295 H         1 <1>         0.0347 
     24 H3          3.5853    4.5675  -14.9574 H         1 <1>         0.0281 
     25 H4          2.3511    5.8499  -14.8027 H         1 <1>         0.0281 
     26 H5          2.7898    3.6091  -12.7326 H         1 <1>         0.0289 
     27 H6          1.5038    3.5898  -13.9726 H         1 <1>         0.0289 
     28 H7          0.7796    4.4863  -11.6526 H         1 <1>         0.0432 
     29 H8          0.4279    5.5796  -13.0206 H         1 <1>         0.0432 
     30 H9          7.3401    9.5490  -10.5272 H         1 <1>         0.0363 
     31 H10         6.6381   10.8080   -9.4995 H         1 <1>         0.0363 
     32 H11         6.5655   10.9810  -11.2798 H         1 <1>         0.0363 
     33 H12         6.2525    7.0442  -12.2448 H         1 <1>         0.1740 
     34 H13         6.5283    8.7323  -12.7234 H         1 <1>         0.1740 
     35 H14         4.3978   12.4716  -10.5849 H         1 <1>         0.0621 
     36 H15         3.8650   10.1364   -7.0142 H         1 <1>         0.0621 
     37 H16         3.9914   12.2039   -5.6420 H         1 <1>         0.0617 
     38 H17         4.3403   14.4038   -6.7425 H         1 <1>         0.0615 
     39 H18         4.5393   14.5374   -9.2151 H         1 <1>         0.0617 
@<TRIPOS>BOND
     1    2    1 1    
     2    2    3 1    
     3    3    4 1    
     4    4    5 1    
     5    5    6 2    
     6    1    6 1    
     7    5    7 1    
     8    7    8 1    
     9    8    9 ar   
    10    6    9 1    
    11    8   10 ar   
    12   10   11 ar   
    13   11   12 ar   
    14   12   13 ar   
    15    9   13 ar   
    16   12   14 1    
    17   13   15 1    
    18   11   16 1    
    19   16   17 ar   
    20   16   18 ar   
    21   18   19 ar   
    22   19   20 ar   
    23   20   21 ar   
    24   17   21 ar   
    25    1   22 1    
    26    1   23 1    
    27    2   24 1    
    28    2   25 1    
    29    3   26 1    
    30    3   27 1    
    31    4   28 1    
    32    4   29 1    
    33   14   30 1    
    34   14   31 1    
    35   14   32 1    
    36   15   33 1    
    37   15   34 1    
    38   17   35 1    
    39   18   36 1    
    40   19   37 1    
    41   20   38 1    
    42   21   39 1    
@<TRIPOS>SUBSTRUCTURE
     1 ****        2 TEMP              0 ****  ****    0 ROOT 
@<TRIPOS>NORMAL
@<TRIPOS>FF_PBC
FORCE_FIELD_SETUP_FEATURE Force Field Setup information
v1.0  0 0.000000 0.000000 0.000000 0.000000 0.000000 0.000000 NONE 0 0 0 0 1 0 0 0 0 0 0 0 0
