#	Name:			PISM00195
#	Creating user name:	14062
#	Creation time:		Wed Jun 19 15:12:34 2019

#	Modifying user name:	14062
#	Modification time:	Wed Jun 19 15:18:07 2019

@<TRIPOS>MOLECULE
PISM00195
   42    43     1     1     0
SMALL
GAST_HUCK


@<TRIPOS>ATOM
      1 C1         -7.0721    0.1137   -0.4142 C.ar      1 BENZYL     -0.0701 
      2 C1         -5.7978    0.6425   -0.2106 C.ar      1 BENZYL     -0.0627 
      3 C2         -4.9488    0.8623   -1.3011 C.ar      1 BENZYL     -0.0239 
      4 C3         -5.3794    0.5675   -2.6052 C.ar      1 BENZYL     -0.0096 
      5 C4         -4.4423    0.6708   -3.6457 C.ar      1 BENZYL     -0.0546 
      6 C5         -3.1632    1.1866   -3.4196 C.ar      1 BENZYL     -0.0625 
      7 C6         -2.7753    1.5541   -2.1309 C.ar      1 BENZYL     -0.0629 
      8 C7         -3.6659    1.3755   -1.0712 C.ar      1 BENZYL     -0.0568 
      9 C9         -6.7148    0.1777   -2.8198 C.ar      1 BENZYL     -0.0094 
     10 C10        -7.5174   -0.1307   -1.7138 C.ar      1 BENZYL     -0.0580 
     11 C11        -7.3460    0.0798   -4.2255 C.3       1 BENZYL      0.0949 
     12 C12        -8.7882    0.5352   -4.2306 C.2       1 BENZYL      0.2469 
     13 O13        -9.0916    1.6996   -4.4384 O.2       1 BENZYL     -0.3669 
     14 O14        -9.7167   -0.3964   -4.0065 O.3       1 BENZYL     -0.2909 
     15 C15        -7.1778   -1.3608   -4.7859 C.3       1 BENZYL     -0.0217 
     16 H1         -7.7143   -0.1041    0.4341 H         1 BENZYL      0.0596 
     17 H2         -5.4774    0.8735    0.8008 H         1 BENZYL      0.0546 
     18 H3         -4.6686    0.3488   -4.6541 H         1 BENZYL      0.0628 
     19 H4         -2.4672    1.3004   -4.2457 H         1 BENZYL      0.0602 
     20 H5         -1.7885    1.9715   -1.9541 H         1 BENZYL      0.0616 
     21 H6         -3.3467    1.6398   -0.0676 H         1 BENZYL      0.0609 
     22 H7         -8.5015   -0.5657   -1.8448 H         1 BENZYL      0.0535 
     23 H8         -6.8602    0.7986   -4.9011 H         1 BENZYL      0.0722 
     24 H9        -10.5905   -0.0222   -4.0309 H         1 BENZYL      0.2541 
     25 C25        -7.6554   -1.4779   -6.2602 C.3       1 BENZYL     -0.0487 
     26 H11        -7.7448   -2.0619   -4.1523 H         1 BENZYL      0.0316 
     27 H12        -6.1162   -1.6502   -4.7331 H         1 BENZYL      0.0316 
     28 H10        -7.0791   -0.7775   -6.8869 H         1 BENZYL      0.0268 
     29 H13        -8.7209   -1.2065   -6.3320 H         1 BENZYL      0.0268 
     30 C30        -7.4655   -2.9218   -6.8010 C.3       1 BENZYL     -0.0528 
     31 H14        -8.0383   -3.6242   -6.1731 H         1 BENZYL      0.0265 
     32 H15        -6.3994   -3.1971   -6.7426 H         1 BENZYL      0.0265 
     33 C33        -7.9457   -3.0415   -8.2734 C.3       1 BENZYL     -0.0533 
     34 H16        -7.3743   -2.3390   -8.9022 H         1 BENZYL      0.0265 
     35 H17        -9.0124   -2.7693   -8.3328 H         1 BENZYL      0.0265 
     36 C36        -7.7557   -4.4845   -8.8156 C.3       1 BENZYL     -0.0559 
     37 H18        -8.3273   -5.1918   -8.1917 H         1 BENZYL      0.0263 
     38 H19        -6.6895   -4.7618   -8.7628 H         1 BENZYL      0.0263 
     39 C39        -8.2373   -4.6025  -10.2853 C.3       1 BENZYL     -0.0653 
     40 H20        -7.6650   -3.9204  -10.9333 H         1 BENZYL      0.0230 
     41 H21        -9.3061   -4.3485  -10.3611 H         1 BENZYL      0.0230 
     42 H22        -8.0956   -5.6324  -10.6495 H         1 BENZYL      0.0230 
@<TRIPOS>BOND
     1    2    3 ar   
     2    3    4 ar   
     3    3    8 ar   
     4    8    7 ar   
     5    7    6 ar   
     6    6    5 ar   
     7    5    4 ar   
     8    2    1 ar   
     9    4    9 ar   
    10    9   10 ar   
    11    1   10 ar   
    12    9   11 1    
    13   11   12 1    
    14   12   13 2    
    15   12   14 1    
    16   11   15 1    
    17    1   16 1    
    18    2   17 1    
    19    5   18 1    
    20    6   19 1    
    21    7   20 1    
    22    8   21 1    
    23   10   22 1    
    24   11   23 1    
    25   14   24 1    
    26   15   25 1    
    27   15   26 1    
    28   15   27 1    
    29   25   28 1    
    30   25   29 1    
    31   25   30 1    
    32   30   31 1    
    33   30   32 1    
    34   30   33 1    
    35   33   34 1    
    36   33   35 1    
    37   33   36 1    
    38   36   37 1    
    39   36   38 1    
    40   36   39 1    
    41   39   40 1    
    42   39   41 1    
    43   39   42 1    
@<TRIPOS>SUBSTRUCTURE
     1 BENZYL      2 PERM              0 ****  ****    0 ROOT 
@<TRIPOS>NORMAL
@<TRIPOS>FF_PBC
FORCE_FIELD_SETUP_FEATURE Force Field Setup information
v1.0  0 0.000000 0.000000 0.000000 0.000000 0.000000 0.000000 NONE 0 0 0 0 1 0 0 0 0 0 0 0 0
