#	Name:			PISM00208
#	Creating user name:	14062
#	Creation time:		Mon Apr 01 20:10:24 2019

#	Modifying user name:	14062
#	Modification time:	Mon Apr 01 20:42:53 2019

@<TRIPOS>MOLECULE
PISM00208
   43    44     1     2     0
SMALL
GAST_HUCK


@<TRIPOS>ATOM
      1 N1          1.1102    2.7678    6.4071 N.pl3     1 <1>        -0.2884 
      2 C2         -0.2053    3.0290    6.5383 C.ar      1 <1>         0.0606 
      3 C3         -0.9268    2.1814    5.7198 C.ar      1 <1>        -0.0191 
      4 C4         -2.3191    2.2182    5.6547 C.ar      1 <1>        -0.0746 
      5 C5         -2.9630    3.1710    6.4551 C.ar      1 <1>        -0.0792 
      6 C6         -2.2327    4.0372    7.2848 C.ar      1 <1>        -0.0767 
      7 C7          0.1568    1.3659    5.0618 C.2       1 <1>        -0.0231 
      8 C8          1.3296    1.8025    5.5507 C.2       1 <1>         0.0195 
      9 C9         -0.8335    3.9792    7.3427 C.ar      1 <1>        -0.0442 
     10 C10        -0.0644    0.2762    4.0459 C.3       1 <1>         0.0762 
     11 C11        -1.0737   -0.6944    4.6041 C.2       1 <1>         0.2395 
     12 O12        -2.1126   -0.9669    4.0237 O.2       1 <1>        -0.3687 
     13 O13        -0.7575   -1.2407    5.7784 O.3       1 <1>        -0.2917 
     14 C14        -0.5222    0.8954    2.6961 C.3       1 <1>        -0.0275 
     15 C15         1.3773    3.3416    0.2183 C.3       1 <1>        -0.0531 
     16 C16         0.2049    2.4263    0.6977 C.3       1 <1>        -0.0413 
     17 C17        -2.3253    2.2988    0.0980 C.3       1 <1>        -0.0650 
     18 C18         1.3854    3.5914   -1.3166 C.3       1 <1>        -0.0650 
     19 C19        -1.1683    3.1768    0.6511 C.3       1 <1>        -0.0531 
     20 H1          1.8515    3.2696    6.9191 H         1 <1>         0.2219 
     21 H2         -2.8757    1.5406    5.0166 H         1 <1>         0.0540 
     22 C22         0.5304    1.8891    2.1285 C.3       1 <1>        -0.0467 
     23 H3         -4.0465    3.2389    6.4325 H         1 <1>         0.0510 
     24 H4         -2.7605    4.7652    7.8933 H         1 <1>         0.0530 
     25 H5          2.3077    1.4097    5.2704 H         1 <1>         0.0804 
     26 H6         -0.2610    4.6414    7.9830 H         1 <1>         0.0541 
     27 H7          0.8698   -0.2853    3.8894 H         1 <1>         0.0635 
     28 H8         -1.4418   -1.8307    6.0743 H         1 <1>         0.2540 
     29 H9         -1.4782    1.4126    2.8657 H         1 <1>         0.0307 
     30 H10        -0.6845    0.0814    1.9705 H         1 <1>         0.0307 
     31 H11         2.3435    2.8658    0.4570 H         1 <1>         0.0265 
     32 H12         1.3378    4.3034    0.7561 H         1 <1>         0.0265 
     33 H13         0.1767    1.5588    0.0173 H         1 <1>         0.0301 
     34 H14        -2.1148    2.0094   -0.9438 H         1 <1>         0.0230 
     35 H15        -3.2692    2.8669    0.1137 H         1 <1>         0.0230 
     36 H16        -2.4680    1.3827    0.6870 H         1 <1>         0.0230 
     37 H17         2.2643    4.1972   -1.5895 H         1 <1>         0.0230 
     38 H18         0.4899    4.1267   -1.6615 H         1 <1>         0.0230 
     39 H19         1.4471    2.6344   -1.8581 H         1 <1>         0.0230 
     40 H20        -1.1176    4.0609   -0.0013 H         1 <1>         0.0265 
     41 H21        -1.4315    3.5544    1.6522 H         1 <1>         0.0265 
     42 H22         1.4967    1.3591    2.0990 H         1 <1>         0.0271 
     43 H23         0.6382    2.7466    2.8124 H         1 <1>         0.0271 
@<TRIPOS>BOND
     1    8    1 1    
     2    2    1 1    
     3    3    2 ar   
     4    7    3 1    
     5    3    4 ar   
     6    4    5 ar   
     7    5    6 ar   
     8    7    8 2    
     9    9    6 ar   
    10    2    9 ar   
    11    7   10 1    
    12   10   11 1    
    13   11   12 2    
    14   11   13 1    
    15   10   14 1    
    16   16   15 1    
    17   19   17 1    
    18   15   18 1    
    19   22   16 1    
    20    1   20 1    
    21   16   19 1    
    22    4   21 1    
    23   14   22 1    
    24    5   23 1    
    25    6   24 1    
    26    8   25 1    
    27    9   26 1    
    28   10   27 1    
    29   13   28 1    
    30   14   29 1    
    31   14   30 1    
    32   15   31 1    
    33   15   32 1    
    34   16   33 1    
    35   17   34 1    
    36   17   35 1    
    37   17   36 1    
    38   18   37 1    
    39   18   38 1    
    40   18   39 1    
    41   19   40 1    
    42   19   41 1    
    43   22   42 1    
    44   22   43 1    
@<TRIPOS>SUBSTRUCTURE
     1 ****        7 TEMP              0 ****  ****    0 ROOT 
@<TRIPOS>NORMAL
@<TRIPOS>FF_PBC
FORCE_FIELD_SETUP_FEATURE Force Field Setup information
v1.0  0 0.000000 0.000000 0.000000 0.000000 0.000000 0.000000 NONE 0 0 0 0 1 0 0 0 0 0 0 0 0
@<TRIPOS>RENDERING_ATTRS
ANTIALIASED_LINES 
1,2,3,4,5,6,7,8,9,10,11,12,13,14,16,17,19,22
