#	Name:			PISM00850
#	Creating user name:	baoopengkun
#	Creation time:		Thu Dec 13 15:12:19 2018

#	Modifying user name:	baoopengkun
#	Modification time:	Thu Dec 13 20:01:49 2018

@<TRIPOS>MOLECULE
PISM00850
   24    25     1     1     0
SMALL
GAST_HUCK


@<TRIPOS>ATOM
      1 Cl1        -1.4990    2.6281   -3.4187 Cl        1 <1>        -0.0734 
      2 C2         -1.6926    0.3846   -0.0704 C.ar      1 <1>        -0.0561 
      3 C3         -2.0407    1.2000   -1.1515 C.ar      1 <1>        -0.0584 
      4 C4         -1.0633    1.6064   -2.0644 C.ar      1 <1>         0.0320 
      5 C5          0.2621    1.1969   -1.8956 C.ar      1 <1>        -0.0183 
      6 C6          0.6112    0.3843   -0.8138 C.ar      1 <1>         0.1127 
      7 C7         -0.3662   -0.0225    0.0993 C.ar      1 <1>         0.0684 
      8 Cl8         0.0701   -1.0412    1.4563 Cl        1 <1>        -0.0786 
      9 O9          1.9348   -0.0191   -0.6485 O.3       1 <1>        -0.2700 
     10 C10         2.6985    0.9005    0.1415 C.3       1 <1>         0.2359 
     11 O11         2.7162    2.1944   -0.4949 O.3       1 <1>        -0.2313 
     12 C12         3.9813    2.3954   -0.8411 C.2       1 <1>         0.2494 
     13 C13         4.9120    1.3390   -0.4614 C.2       1 <1>         0.0292 
     14 C14         4.1344    0.4384    0.1368 C.2       1 <1>        -0.0019 
     15 C15         6.3953    1.2872   -0.7056 C.3       1 <1>        -0.0323 
     16 O16         4.3369    3.4010   -1.4309 O.2       1 <1>        -0.3691 
     17 H1         -2.4507    0.0668    0.6383 H         1 <1>         0.0595 
     18 H2         -3.0697    1.5186   -1.2839 H         1 <1>         0.0529 
     19 H3          1.0228    1.5089   -2.6029 H         1 <1>         0.0547 
     20 H4          2.3144    0.9817    1.1721 H         1 <1>         0.1199 
     21 H5          4.4764   -0.5054    0.5594 H         1 <1>         0.0705 
     22 H6          6.7636    0.2514   -0.6587 H         1 <1>         0.0347 
     23 H7          6.9110    1.8882    0.0579 H         1 <1>         0.0347 
     24 H8          6.6212    1.7009   -1.6998 H         1 <1>         0.0347 
@<TRIPOS>BOND
     1    4    1 1    
     2    2    3 ar   
     3    3    4 ar   
     4    4    5 ar   
     5    5    6 ar   
     6    6    7 ar   
     7    2    7 ar   
     8    7    8 1    
     9    6    9 1    
    10    9   10 1    
    11   10   11 1    
    12   11   12 1    
    13   12   13 1    
    14   13   14 2    
    15   10   14 1    
    16   13   15 1    
    17   12   16 2    
    18    2   17 1    
    19    3   18 1    
    20    5   19 1    
    21   10   20 1    
    22   14   21 1    
    23   15   22 1    
    24   15   23 1    
    25   15   24 1    
@<TRIPOS>SUBSTRUCTURE
     1 ****        2 TEMP              0 ****  ****    0 ROOT 
@<TRIPOS>NORMAL
@<TRIPOS>FF_PBC
FORCE_FIELD_SETUP_FEATURE Force Field Setup information
v1.0  0 0.000000 0.000000 0.000000 0.000000 0.000000 0.000000 NONE 0 0 0 0 1 0 0 0 0 0 0 0 0
