#	Name:			PISM00618
#	Creating user name:	baoopengkun
#	Creation time:		Mon Dec 10 11:04:17 2018

#	Modifying user name:	baoopengkun
#	Modification time:	Mon Dec 10 11:04:31 2018

@<TRIPOS>MOLECULE
PISM00618
   54    57     1     2     0
SMALL
GAST_HUCK


@<TRIPOS>ATOM
      1 C1         13.9648    1.7175  -27.8716 C.ar      1 <1>        -0.0348 
      2 C2         13.5544    0.7090  -26.9953 C.ar      1 <1>        -0.0180 
      3 C3         12.3789   -0.0024  -27.2505 C.ar      1 <1>         0.0714 
      4 C4         11.6030    0.3098  -28.3696 C.ar      1 <1>        -0.0180 
      5 C5         12.0186    1.3126  -29.2500 C.ar      1 <1>        -0.0348 
      6 C6         13.2155    1.9983  -29.0188 C.ar      1 <1>         0.0068 
      7 C7         13.7032    3.0563  -30.0170 C.3       1 <1>         0.1921 
      8 C8         13.0595    4.4155  -29.6662 C.3       1 <1>         0.1073 
      9 N9         13.2396    4.7113  -28.2514 N.pl3     1 <1>        -0.1814 
     10 N10        14.2659    5.4101  -27.6906 N.2       1 <1>        -0.1908 
     11 C11        14.1558    5.5348  -26.4203 C.2       1 <1>         0.0618 
     12 N12        12.9186    4.8418  -26.1878 N.2       1 <1>        -0.2870 
     13 C13        12.4504    4.4054  -27.2669 C.2       1 <1>         0.1270 
     14 O14        15.1338    3.1445  -30.0674 O.3       1 <1>        -0.3814 
     15 C15        15.5835    1.9780  -30.7610 C.3       1 <1>         0.0672 
     16 C16        14.4772    1.8290  -31.8340 C.3       1 <1>         0.1000 
     17 O17        13.4111    2.6763  -31.3701 O.3       1 <1>        -0.3758 
     18 C18        14.0363    0.3572  -32.0388 C.3       1 <1>         0.0952 
     19 O19        13.6073   -0.2118  -30.7914 O.3       1 <1>        -0.3192 
     20 C20        13.2798   -1.5653  -30.8469 C.ar      1 <1>         0.1198 
     21 C21        11.9422   -1.9448  -30.9794 C.ar      1 <1>        -0.0415 
     22 C22        11.6011   -3.2990  -31.0110 C.ar      1 <1>        -0.0819 
     23 C23        12.6045   -4.2672  -30.9170 C.ar      1 <1>        -0.0819 
     24 C24        13.9448   -3.8862  -30.7970 C.ar      1 <1>        -0.0415 
     25 C25        14.2916   -2.5283  -30.7644 C.ar      1 <1>         0.1197 
     26 O26        15.6226   -2.0962  -30.6519 O.3       1 <1>        -0.3218 
     27 C27        16.7241   -3.0066  -30.5052 C.3       1 <1>         0.0677 
     28 C28        18.0172   -2.1622  -30.3841 C.3       1 <1>        -0.0283 
     29 Cl29       11.8771   -1.2844  -26.1675 Cl        1 <1>        -0.0420 
     30 H1         14.8663    2.2851  -27.6605 H         1 <1>         0.0849 
     31 H2         14.1473    0.4773  -26.1165 H         1 <1>         0.0703 
     32 H3         10.6799   -0.2298  -28.5540 H         1 <1>         0.0703 
     33 H4         11.4157    1.5539  -30.1196 H         1 <1>         0.0849 
     34 H5         11.9879    4.3835  -29.9151 H         1 <1>         0.0595 
     35 H6         13.5367    5.1996  -30.2724 H         1 <1>         0.0595 
     36 H7         14.8186    6.0315  -25.7136 H         1 <1>         0.0863 
     37 H8         11.5157    3.8511  -27.3440 H         1 <1>         0.1361 
     38 H9         15.6055    1.1206  -30.0695 H         1 <1>         0.0576 
     39 H10        16.5915    2.1217  -31.1793 H         1 <1>         0.0576 
     40 H11        14.8136    2.2593  -32.7917 H         1 <1>         0.0635 
     41 H12        14.8898   -0.2118  -32.4426 H         1 <1>         0.0635 
     42 H13        13.2072    0.3273  -32.7637 H         1 <1>         0.0635 
     43 H14        11.1729   -1.1842  -31.0581 H         1 <1>         0.0509 
     44 H15        10.5616   -3.5972  -31.1083 H         1 <1>         0.0495 
     45 H16        12.3402   -5.3205  -30.9380 H         1 <1>         0.0495 
     46 H17        14.6953   -4.6644  -30.7313 H         1 <1>         0.0509 
     47 H18        16.7981   -3.6631  -31.3874 H         1 <1>         0.0609 
     48 H19        16.5975   -3.6153  -29.5950 H         1 <1>         0.0609 
     49 C49        19.2712   -3.0596  -30.2201 C.3       1 <1>        -0.0629 
     50 H21        17.9264   -1.4910  -29.5136 H         1 <1>         0.0288 
     51 H22        18.1245   -1.5388  -31.2876 H         1 <1>         0.0288 
     52 H20        20.1747   -2.4348  -30.1372 H         1 <1>         0.0231 
     53 H23        19.3843   -3.7254  -31.0901 H         1 <1>         0.0231 
     54 H24        19.1864   -3.6756  -29.3112 H         1 <1>         0.0231 
@<TRIPOS>BOND
     1    2    1 ar   
     2    2    3 ar   
     3    3    4 ar   
     4    4    5 ar   
     5    5    6 ar   
     6    1    6 ar   
     7    6    7 1    
     8    7    8 1    
     9    8    9 1    
    10    9   10 1    
    11   10   11 2    
    12   11   12 1    
    13   12   13 2    
    14    9   13 1    
    15    7   14 1    
    16   14   15 1    
    17   15   16 1    
    18   16   17 1    
    19    7   17 1    
    20   16   18 1    
    21   18   19 1    
    22   19   20 1    
    23   20   21 ar   
    24   21   22 ar   
    25   22   23 ar   
    26   23   24 ar   
    27   24   25 ar   
    28   20   25 ar   
    29   25   26 1    
    30   26   27 1    
    31   27   28 1    
    32    3   29 1    
    33    1   30 1    
    34    2   31 1    
    35    4   32 1    
    36    5   33 1    
    37    8   34 1    
    38    8   35 1    
    39   11   36 1    
    40   13   37 1    
    41   15   38 1    
    42   15   39 1    
    43   16   40 1    
    44   18   41 1    
    45   18   42 1    
    46   21   43 1    
    47   22   44 1    
    48   23   45 1    
    49   24   46 1    
    50   27   47 1    
    51   27   48 1    
    52   28   49 1    
    53   28   50 1    
    54   28   51 1    
    55   49   52 1    
    56   49   53 1    
    57   49   54 1    
@<TRIPOS>SUBSTRUCTURE
     1 ****        2 TEMP              0 ****  ****    0 ROOT 
@<TRIPOS>NORMAL
@<TRIPOS>FF_PBC
FORCE_FIELD_SETUP_FEATURE Force Field Setup information
v1.0  0 0.000000 0.000000 0.000000 0.000000 0.000000 0.000000 NONE 0 0 0 0 1 0 0 0 0 0 0 0 0
@<TRIPOS>RENDERING_ATTRS
ANTIALIASED_LINES 
*
