#	Name:			PISM00935.1
#	Creating user name:	baoopengkun
#	Creation time:		Wed Dec 12 22:41:34 2018

#	Modifying user name:	baoopengkun
#	Modification time:	Wed Dec 12 23:01:19 2018

@<TRIPOS>MOLECULE
PISM00935.1
   22    22     1     1     0
SMALL
GAST_HUCK


@<TRIPOS>ATOM
      1 C1          2.1515  -10.2579    4.3736 C.3       1 <1>         0.0211 
      2 C2          2.3803   -9.5055    5.6559 C.2       1 <1>         0.1075 
      3 C3          3.4479   -9.5033    6.4512 C.2       1 <1>         0.0164 
      4 C4          3.2416   -8.6011    7.6432 C.3       1 <1>         0.2195 
      5 O5          1.9250   -8.0459    7.4583 O.3       1 <1>        -0.2894 
      6 C6          1.4702   -8.5876    6.3340 C.2       1 <1>         0.3149 
      7 C7          4.7459  -10.2529    6.2954 C.3       1 <1>        -0.0304 
      8 O8          4.2146   -7.5539    7.6892 O.3       1 <1>        -0.4174 
      9 O9          0.3626   -8.3314    5.8931 O.2       1 <1>        -0.3160 
     10 C10         3.2814   -9.3907    8.8674 C.1       1 <1>        -0.1058 
     11 C11         3.3153  -10.0463    9.8763 C.1       1 <1>        -0.1170 
     12 C12         3.3566  -10.8386   11.0985 C.3       1 <1>        -0.0037 
     13 H1          1.1493  -10.0380    3.9757 H         1 <1>         0.0617 
     14 H2          2.2307  -11.3398    4.5570 H         1 <1>         0.0617 
     15 H3          2.9026   -9.9600    3.6269 H         1 <1>         0.0617 
     16 H4          4.7619  -10.8434    5.3677 H         1 <1>         0.0389 
     17 H5          4.8856  -10.9338    7.1482 H         1 <1>         0.0389 
     18 H6          5.5811   -9.5370    6.2719 H         1 <1>         0.0389 
     19 H7          4.1508   -6.9881    6.9282 H         1 <1>         0.1900 
     20 H8          3.3658  -10.1667   11.9693 H         1 <1>         0.0361 
     21 H9          4.2655  -11.4578   11.1027 H         1 <1>         0.0361 
     22 H10         2.4694  -11.4870   11.1442 H         1 <1>         0.0361 
@<TRIPOS>BOND
     1    2    1 1    
     2    2    3 2    
     3    3    4 1    
     4    4    5 1    
     5    5    6 1    
     6    2    6 1    
     7    3    7 1    
     8    4    8 1    
     9    6    9 2    
    10    4   10 1    
    11   10   11 3    
    12   11   12 1    
    13    1   13 1    
    14    1   14 1    
    15    1   15 1    
    16    7   16 1    
    17    7   17 1    
    18    7   18 1    
    19    8   19 1    
    20   12   20 1    
    21   12   21 1    
    22   12   22 1    
@<TRIPOS>SUBSTRUCTURE
     1 ****        2 TEMP              0 ****  ****    0 ROOT 
@<TRIPOS>NORMAL
@<TRIPOS>FF_PBC
FORCE_FIELD_SETUP_FEATURE Force Field Setup information
v1.0  0 0.000000 0.000000 0.000000 0.000000 0.000000 0.000000 NONE 0 0 0 0 1 0 0 0 0 0 0 0 0
