#	Name:			PISM00851.1
#	Creating user name:	baoopengkun
#	Creation time:		Thu Dec 13 15:12:19 2018

#	Modifying user name:	baoopengkun
#	Modification time:	Thu Dec 13 20:03:23 2018

@<TRIPOS>MOLECULE
PISM00851.1
   24    25     1     1     0
SMALL
GAST_HUCK


@<TRIPOS>ATOM
      1 H3          4.3508   -1.8625    4.3836 H         1 <1>         0.0596 
      2 C2          1.3315   -2.2982    2.8717 C.ar      1 <1>        -0.0564 
      3 C3          2.4404   -2.5735    3.6771 C.ar      1 <1>        -0.0718 
      4 C4          3.4923   -1.6560    3.7524 C.ar      1 <1>        -0.0564 
      5 C5          3.4400   -0.4704    3.0143 C.ar      1 <1>         0.0689 
      6 C6          2.3377   -0.2015    2.1971 C.ar      1 <1>         0.1267 
      7 C7          1.2758   -1.1098    2.1380 C.ar      1 <1>         0.0689 
      8 Cl8        -0.1287   -0.7644    1.1491 Cl        1 <1>        -0.0788 
      9 O9          2.3007    0.9742    1.4471 O.3       1 <1>        -0.2690 
     10 C10         2.7075    0.8309    0.0778 C.3       1 <1>         0.2361 
     11 O11         2.6979    2.1460   -0.5114 O.3       1 <1>        -0.2312 
     12 C12         3.9649    2.4073   -0.8078 C.2       1 <1>         0.2495 
     13 C13         4.9106    1.3345   -0.5224 C.2       1 <1>         0.0292 
     14 C14         4.1454    0.3743   -0.0080 C.2       1 <1>        -0.0019 
     15 C15         6.3944    1.3103   -0.7672 C.3       1 <1>        -0.0323 
     16 O16         4.3073    3.4705   -1.2959 O.2       1 <1>        -0.3691 
     17 H1          0.5112   -3.0067    2.8154 H         1 <1>         0.0596 
     18 H2          2.4841   -3.4985    4.2444 H         1 <1>         0.0524 
     19 Cl19        4.7601    0.6781    3.1126 Cl        1 <1>        -0.0788 
     20 H4          2.0377    0.1662   -0.4913 H         1 <1>         0.1200 
     21 H5          4.5096   -0.6009    0.3127 H         1 <1>         0.0705 
     22 H6          6.6893    0.3479   -1.2114 H         1 <1>         0.0347 
     23 H7          6.9237    1.4451    0.1877 H         1 <1>         0.0347 
     24 H8          6.6799    2.1220   -1.4532 H         1 <1>         0.0347 
@<TRIPOS>BOND
     1    4    1 1    
     2    2    3 ar   
     3    3    4 ar   
     4    4    5 ar   
     5    5    6 ar   
     6    6    7 ar   
     7    2    7 ar   
     8    7    8 1    
     9    6    9 1    
    10    9   10 1    
    11   10   11 1    
    12   11   12 1    
    13   12   13 1    
    14   13   14 2    
    15   10   14 1    
    16   13   15 1    
    17   12   16 2    
    18    2   17 1    
    19    3   18 1    
    20    5   19 1    
    21   10   20 1    
    22   14   21 1    
    23   15   22 1    
    24   15   23 1    
    25   15   24 1    
@<TRIPOS>SUBSTRUCTURE
     1 ****        2 TEMP              0 ****  ****    0 ROOT 
@<TRIPOS>NORMAL
@<TRIPOS>FF_PBC
FORCE_FIELD_SETUP_FEATURE Force Field Setup information
v1.0  0 0.000000 0.000000 0.000000 0.000000 0.000000 0.000000 NONE 0 0 0 0 1 0 0 0 0 0 0 0 0
