#	Name:			PISM00822.1
#	Creating user name:	baoopengkun
#	Creation time:		Fri Nov 30 17:53:41 2018

#	Modifying user name:	baoopengkun
#	Modification time:	Fri Nov 30 18:00:10 2018

@<TRIPOS>MOLECULE
PISM00822.1
   35    36     1     2     0
SMALL
GAST_HUCK


@<TRIPOS>ATOM
      1 C1        -10.5755   -2.4369    4.0111 C.ar      1 <1>        -0.0714 
      2 C2        -10.0212   -2.7018    2.7553 C.ar      1 <1>        -0.0389 
      3 C3         -9.1894   -1.7573    2.1408 C.ar      1 <1>         0.0824 
      4 C4         -8.9342   -0.5461    2.7887 C.ar      1 <1>        -0.0389 
      5 C5         -9.5037   -0.2731    4.0357 C.ar      1 <1>        -0.0714 
      6 C6        -10.3123   -1.2274    4.6629 C.ar      1 <1>        -0.0380 
      7 O7         -8.6089   -1.9981    0.8918 O.3       1 <1>        -0.3363 
      8 H1        -11.2132   -3.1787    4.4824 H         1 <1>         0.0535 
      9 C9        -10.9182   -0.9813    6.0292 C.2       1 <1>         0.0758 
     10 C10       -12.3218   -1.3604    6.3078 C.2       1 <1>         0.2383 
     11 O11       -13.3573   -0.9998    5.5278 O.3       1 <1>        -0.2865 
     12 C12       -13.0707   -0.1261    4.4182 C.3       1 <1>         0.0638 
     13 O13       -12.5552   -2.0093    7.3132 O.2       1 <1>        -0.3769 
     14 C14       -10.1922   -0.4438    7.0185 C.2       1 <1>         0.1006 
     15 O15        -8.9072   -0.1206    6.8087 O.3       1 <1>        -0.2533 
     16 C16        -8.2631    0.4631    7.9528 C.3       1 <1>         0.2446 
     17 C17        -6.7986    0.6200    7.6258 C.2       1 <1>         0.0002 
     18 C18        -6.0560   -0.1307    8.4374 C.2       1 <1>         0.0294 
     19 C19        -7.0382   -0.7702    9.3044 C.2       1 <1>         0.2496 
     20 O20        -8.3042   -0.4485    9.0695 O.3       1 <1>        -0.2294 
     21 C21        -4.5608   -0.2918    8.4716 C.3       1 <1>        -0.0323 
     22 O22        -6.7222   -1.5442   10.1911 O.2       1 <1>        -0.3691 
     23 H2        -10.2420   -3.6447    2.2657 H         1 <1>         0.0531 
     24 H3         -8.2894    0.1858    2.3136 H         1 <1>         0.0531 
     25 H4         -9.3191    0.6876    4.5047 H         1 <1>         0.0535 
     26 H5         -8.8136   -2.8490    0.5213 H         1 <1>         0.2467 
     27 H6        -14.0427    0.1998    4.0199 H         1 <1>         0.0574 
     28 H7        -12.5449   -0.6420    3.6029 H         1 <1>         0.0574 
     29 H8        -12.5121    0.7725    4.7247 H         1 <1>         0.0574 
     30 H9        -10.6825   -0.2942    7.9849 H         1 <1>         0.1284 
     31 H10        -8.7027    1.4369    8.2279 H         1 <1>         0.1224 
     32 H11        -6.4125    1.2559    6.8301 H         1 <1>         0.0707 
     33 H12        -4.0741    0.3697    7.7392 H         1 <1>         0.0347 
     34 H13        -4.3024   -1.3358    8.2396 H         1 <1>         0.0347 
     35 H14        -4.1897   -0.0466    9.4778 H         1 <1>         0.0347 
@<TRIPOS>BOND
     1    2    1 ar   
     2    2    3 ar   
     3    3    4 ar   
     4    4    5 ar   
     5    5    6 ar   
     6    1    6 ar   
     7    3    7 1    
     8    1    8 1    
     9    6    9 1    
    10    9   10 1    
    11   10   11 1    
    12   11   12 1    
    13   10   13 2    
    14    9   14 2    
    15   14   15 1    
    16   15   16 1    
    17   16   17 1    
    18   17   18 2    
    19   18   19 1    
    20   19   20 1    
    21   16   20 1    
    22   18   21 1    
    23   19   22 2    
    24    2   23 1    
    25    4   24 1    
    26    5   25 1    
    27    7   26 1    
    28   12   27 1    
    29   12   28 1    
    30   12   29 1    
    31   14   30 1    
    32   16   31 1    
    33   17   32 1    
    34   21   33 1    
    35   21   34 1    
    36   21   35 1    
@<TRIPOS>SUBSTRUCTURE
     1 ****        2 TEMP              0 ****  ****    0 ROOT 
@<TRIPOS>NORMAL
@<TRIPOS>FF_PBC
FORCE_FIELD_SETUP_FEATURE Force Field Setup information
v1.0  0 0.000000 0.000000 0.000000 0.000000 0.000000 0.000000 NONE 0 0 0 0 1 0 0 0 0 0 0 0 0
@<TRIPOS>RENDERING_ATTRS
ANTIALIASED_LINES 
*
