#	Name:			PISM01203
#	Creating user name:	14062
#	Creation time:		Sun Apr 07 00:29:48 2019

#	Modifying user name:	14062
#	Modification time:	Sun Apr 07 00:33:40 2019

@<TRIPOS>MOLECULE
PISM01203
   19    19     1     1     0
SMALL
GAST_HUCK


@<TRIPOS>ATOM
      1 O1         -8.7718    9.6726   -1.9498 O.3       1 BENZYL     -0.0914 
      2 Hg2        -8.2612    7.9916   -2.6460 Hg        1 BENZYL     -4.0000 
      3 C2         -8.4208    7.6613   -4.1111 C.ar      1 BENZYL     -0.0179 
      4 C3         -9.6948    7.5638   -4.6601 C.ar      1 BENZYL     -0.0540 
      5 C4         -9.8496    7.2562   -6.0164 C.ar      1 BENZYL     -0.0612 
      6 C5         -8.7174    7.0501   -6.8142 C.ar      1 BENZYL     -0.0617 
      7 C6         -7.4365    7.1517   -6.2575 C.ar      1 BENZYL     -0.0612 
      8 C7         -7.2935    7.4592   -4.8999 C.ar      1 BENZYL     -0.0540 
      9 C9         -8.4478   10.3399   -0.8123 C.2       1 BENZYL      0.2726 
     10 O10        -7.7134   10.0384    0.1249 O.2       1 BENZYL     -0.3670 
     11 C11        -9.1503   11.6619   -0.7701 C.3       1 BENZYL      0.0407 
     12 H5        -10.5291    7.7350   -3.9942 H         1 BENZYL      0.0624 
     13 H6        -10.8441    7.1795   -6.4397 H         1 BENZYL      0.0618 
     14 H7         -8.8328    6.8115   -7.8655 H         1 BENZYL      0.0618 
     15 H8         -6.5555    6.9942   -6.8683 H         1 BENZYL      0.0618 
     16 H9         -6.3325    7.5517   -4.4135 H         1 BENZYL      0.0624 
     17 H10        -8.8640   12.2451   -1.6572 H         1 BENZYL      0.0484 
     18 H11        -8.8822   12.2227    0.1367 H         1 BENZYL      0.0484 
     19 H12       -10.2357   11.4873   -0.7836 H         1 BENZYL      0.0484 
@<TRIPOS>BOND
     1    2    3 1    
     2    3    4 ar   
     3    3    8 ar   
     4    8    7 ar   
     5    7    6 ar   
     6    6    5 ar   
     7    5    4 ar   
     8    2    1 1    
     9    1    9 1    
    10    9   10 2    
    11    9   11 1    
    12    4   12 1    
    13    5   13 1    
    14    6   14 1    
    15    7   15 1    
    16    8   16 1    
    17   11   17 1    
    18   11   18 1    
    19   11   19 1    
@<TRIPOS>SUBSTRUCTURE
     1 BENZYL      2 PERM              0 ****  ****    0 ROOT 
@<TRIPOS>NORMAL
@<TRIPOS>FF_PBC
FORCE_FIELD_SETUP_FEATURE Force Field Setup information
v1.0  0 0.000000 0.000000 0.000000 0.000000 0.000000 0.000000 NONE 0 0 0 0 1 0 0 0 0 0 0 0 0
