#	Name:			PISM00848.1
#	Creating user name:	baoopengkun
#	Creation time:		Thu Dec 13 15:12:19 2018

#	Modifying user name:	baoopengkun
#	Modification time:	Thu Dec 13 15:14:54 2018

@<TRIPOS>MOLECULE
PISM00848.1
   24    25     1     1     0
SMALL
GAST_HUCK


@<TRIPOS>ATOM
      1 Cl1        -0.3100   -3.9225    3.2419 Cl        1 <1>        -0.0729 
      2 C2          0.7884   -2.5659    3.0874 C.ar      1 <1>         0.0458 
      3 C3          1.9530   -2.5282    3.8597 C.ar      1 <1>        -0.0585 
      4 C4          2.8335   -1.4484    3.7489 C.ar      1 <1>        -0.0699 
      5 C5          2.5511   -0.4100    2.8570 C.ar      1 <1>        -0.0319 
      6 C6          1.3974   -0.4556    2.0700 C.ar      1 <1>         0.1127 
      7 C7          0.5048   -1.5250    2.1975 C.ar      1 <1>         0.0820 
      8 Cl8        -0.9661   -1.5570    1.2447 Cl        1 <1>        -0.0782 
      9 O9          1.1420    0.5717    1.1623 O.3       1 <1>        -0.2700 
     10 C10         1.5318    0.2893   -0.1903 C.3       1 <1>         0.2359 
     11 O11         1.2596    1.4652   -0.9780 O.3       1 <1>        -0.2313 
     12 C12         2.4441    1.8830   -1.4064 C.2       1 <1>         0.2494 
     13 C13         3.5808    1.0601   -1.0121 C.2       1 <1>         0.0292 
     14 C14         3.0268    0.0896   -0.2880 C.2       1 <1>        -0.0019 
     15 C15         5.0289    1.2697   -1.3610 C.3       1 <1>        -0.0323 
     16 O16         2.5690    2.8841   -2.0906 O.2       1 <1>        -0.3691 
     17 H1          2.1717   -3.3394    4.5470 H         1 <1>         0.0529 
     18 H2          3.7345   -1.4162    4.3543 H         1 <1>         0.0591 
     19 H3          3.2263    0.4353    2.7715 H         1 <1>         0.0544 
     20 H4          0.9841   -0.5683   -0.6136 H         1 <1>         0.1199 
     21 H5          3.5735   -0.7319    0.1732 H         1 <1>         0.0705 
     22 H6          5.6423    0.4160   -1.0356 H         1 <1>         0.0347 
     23 H7          5.3927    2.1827   -0.8666 H         1 <1>         0.0347 
     24 H8          5.1293    1.3882   -2.4501 H         1 <1>         0.0347 
@<TRIPOS>BOND
     1    2    1 1    
     2    2    3 ar   
     3    3    4 ar   
     4    4    5 ar   
     5    5    6 ar   
     6    6    7 ar   
     7    2    7 ar   
     8    7    8 1    
     9    6    9 1    
    10    9   10 1    
    11   10   11 1    
    12   11   12 1    
    13   12   13 1    
    14   13   14 2    
    15   10   14 1    
    16   13   15 1    
    17   12   16 2    
    18    3   17 1    
    19    4   18 1    
    20    5   19 1    
    21   10   20 1    
    22   14   21 1    
    23   15   22 1    
    24   15   23 1    
    25   15   24 1    
@<TRIPOS>SUBSTRUCTURE
     1 ****        2 TEMP              0 ****  ****    0 ROOT 
@<TRIPOS>NORMAL
@<TRIPOS>FF_PBC
FORCE_FIELD_SETUP_FEATURE Force Field Setup information
v1.0  0 0.000000 0.000000 0.000000 0.000000 0.000000 0.000000 NONE 0 0 0 0 1 0 0 0 0 0 0 0 0
