#	Name:			PISM00535
#	Creating user name:	malab
#	Creation time:		Thu Apr 04 21:45:47 2019

#	Modifying user name:	malab
#	Modification time:	Thu Apr 04 21:46:47 2019

@<TRIPOS>MOLECULE
PISM00535
   17    17     1     1     0
SMALL
GAST_HUCK


@<TRIPOS>ATOM
      1 O1         21.8130    8.9503   -8.1946 O.2       1 <1>        -0.3650 
      2 C2         22.6069    8.8033   -9.1109 C.2       1 <1>         0.2522 
      3 O3         22.2640    8.0654  -10.1703 O.3       1 <1>        -0.2956 
      4 C4         23.9733    9.4557   -9.0440 C.ar      1 <1>         0.0801 
      5 C5         24.2899   10.2199   -7.9142 C.ar      1 <1>        -0.0378 
      6 C6         25.5336   10.8431   -7.8039 C.ar      1 <1>         0.0328 
      7 C7         26.4664   10.7019   -8.8312 C.ar      1 <1>        -0.0409 
      8 C8         26.1587    9.9411   -9.9620 C.ar      1 <1>         0.0635 
      9 C9         24.9105    9.3075  -10.0809 C.ar      1 <1>         0.0732 
     10 N10        24.6137    8.5636  -11.1793 N.pl3     1 <1>        -0.3312 
     11 Cl11       27.3814    9.8111  -11.2145 Cl        1 <1>        -0.0801 
     12 Cl12       25.9219   11.7960   -6.3863 Cl        1 <1>        -0.0815 
     13 H1         21.3823    7.7172  -10.0809 H         1 <1>         0.2519 
     14 H2         23.5715   10.3375   -7.1094 H         1 <1>         0.0646 
     15 H3         27.4340   11.1858   -8.7494 H         1 <1>         0.0633 
     16 H4         25.2946    8.4386  -11.9411 H         1 <1>         0.1753 
     17 H5         23.6948    8.1042  -11.2718 H         1 <1>         0.1753 
@<TRIPOS>BOND
     1    2    1 2    
     2    2    3 1    
     3    2    4 1    
     4    4    5 ar   
     5    5    6 ar   
     6    6    7 ar   
     7    7    8 ar   
     8    8    9 ar   
     9    4    9 ar   
    10    9   10 1    
    11    8   11 1    
    12    6   12 1    
    13    3   13 1    
    14    5   14 1    
    15    7   15 1    
    16   10   16 1    
    17   10   17 1    
@<TRIPOS>SUBSTRUCTURE
     1 ****        2 TEMP              0 ****  ****    0 ROOT 
@<TRIPOS>NORMAL
@<TRIPOS>FF_PBC
FORCE_FIELD_SETUP_FEATURE Force Field Setup information
v1.0  0 0.000000 0.000000 0.000000 0.000000 0.000000 0.000000 NONE 0 0 0 0 1 0 0 0 0 0 0 0 0
