#	Name:			PISM00147.1
#	Creating user name:	14062
#	Creation time:		Sat Oct 19 22:24:58 2019

#	Modifying user name:	14062
#	Modification time:	Sat Oct 19 22:32:12 2019

@<TRIPOS>MOLECULE
PISM00147.1
   31    32     2     1     0
SMALL
GAST_HUCK


@<TRIPOS>ATOM
      1 C1          1.7226    2.0427    5.3211 C.3       1 BENZYL      0.1325 
      2 C1          3.2147    2.5037    5.1314 C.3       1 BENZYL      0.2383 
      3 C2          3.1967    3.1234    3.7337 C.ar      1 BENZYL      0.0221 
      4 C3          1.9203    3.0229    3.2066 C.ar      1 BENZYL      0.0410 
      5 C4          1.6089    3.4951    1.9310 C.ar      1 BENZYL     -0.0523 
      6 C5          2.6384    4.0858    1.1886 C.ar      1 BENZYL     -0.0471 
      7 C6          3.9301    4.1992    1.7198 C.ar      1 BENZYL      0.1115 
      8 C7          4.2234    3.7252    3.0035 C.ar      1 BENZYL     -0.0345 
      9 N9          1.0805    2.4338    4.0736 N.pl3     1 BENZYL     -0.3117 
     10 F10         4.8923    4.7644    0.9973 F         1 BENZYL     -0.1964 
     11 N           4.2274    1.4649    5.1882 N.2       2 NO          0.1721 
     12 O           5.4104    1.7651    5.0361 O.2       2 NO          0.0926 
     13 O13         3.9015    0.1191    5.4448 O.3       2 NO         -0.0551 
     14 S14         0.9006    2.9343    6.6872 S.3       1 BENZYL     -0.1056 
     15 C15         1.3312    1.9214    8.1417 C.3       1 BENZYL      0.0970 
     16 C16         2.8261    1.7763    8.2161 C.2       1 BENZYL      0.2436 
     17 O17         3.4053    0.8840    7.6120 O.2       1 BENZYL     -0.3695 
     18 O18         3.4583    2.6963    8.9545 O.3       1 BENZYL     -0.2796 
     19 C19         4.8838    2.5032    9.0436 C.3       1 BENZYL      0.0658 
     20 H1          1.5947    0.9569    5.4462 H         1 BENZYL      0.0721 
     21 H2          3.4714    3.3034    5.8444 H         1 BENZYL      0.0954 
     22 H3          0.6042    3.4066    1.5309 H         1 BENZYL      0.0485 
     23 H4          2.4384    4.4620    0.1905 H         1 BENZYL      0.0513 
     24 H5          5.2221    3.8292    3.4120 H         1 BENZYL      0.0509 
     25 H6          0.0745    2.2923    3.8824 H         1 BENZYL      0.1735 
     26 H7          3.8586   -0.0173    6.3943 H         2 NO          0.4439 
     27 H8          0.8594    0.9313    8.0553 H         1 BENZYL      0.0633 
     28 H9          0.9493    2.4164    9.0472 H         1 BENZYL      0.0633 
     29 H10         5.3637    2.5664    8.0543 H         1 BENZYL      0.0577 
     30 H11         5.1271    1.5350    9.5102 H         1 BENZYL      0.0577 
     31 H12         5.2921    3.3043    9.6777 H         1 BENZYL      0.0577 
@<TRIPOS>BOND
     1    2    3 1    
     2    3    4 ar   
     3    3    8 ar   
     4    8    7 ar   
     5    7    6 ar   
     6    6    5 ar   
     7    5    4 ar   
     8    2    1 1    
     9    1    9 1    
    10    4    9 1    
    11    7   10 1    
    12   11   12 2    
    13    2   11 1    
    14   11   13 1    
    15    1   14 1    
    16   14   15 1    
    17   15   16 1    
    18   16   17 2    
    19   16   18 1    
    20   18   19 1    
    21    1   20 1    
    22    2   21 1    
    23    5   22 1    
    24    6   23 1    
    25    8   24 1    
    26    9   25 1    
    27   13   26 1    
    28   15   27 1    
    29   15   28 1    
    30   19   29 1    
    31   19   30 1    
    32   19   31 1    
@<TRIPOS>SUBSTRUCTURE
     1 BENZYL      2 PERM              0 ****  ****    1 ROOT 
     2 NO         11 PERM              0 ****  ****    1  
@<TRIPOS>NORMAL
@<TRIPOS>FF_PBC
FORCE_FIELD_SETUP_FEATURE Force Field Setup information
v1.0  0 0.000000 0.000000 0.000000 0.000000 0.000000 0.000000 NONE 0 0 0 0 1 0 0 0 0 0 0 0 0
