#	Name:			PISM00415
#	Creating user name:	malab
#	Creation time:		Wed Apr 10 23:23:23 2019

#	Modifying user name:	malab
#	Modification time:	Wed Apr 10 23:25:41 2019

@<TRIPOS>MOLECULE
PISM00415
   42    42     1     2     0
SMALL
USER_CHARGES


@<TRIPOS>ATOM
      1 C1        -13.2872   -0.6583    8.9917 C.3       1 <1>         0.0000 
      2 C2        -12.8290    0.7786    9.3782 C.3       1 <1>         0.0000 
      3 C3        -13.5608    1.2346   10.6101 C.2       1 <1>         0.0000 
      4 C4        -14.8712    0.6602   10.9634 C.2       1 <1>         0.0000 
      5 C5        -15.4961   -0.2199   10.1667 C.2       1 <1>         0.0000 
      6 C6        -14.8529   -0.6371    8.8541 C.3       1 <1>         0.0000 
      7 C7        -12.8108   -1.6560   10.0994 C.3       1 <1>         0.0000 
      8 C8        -12.5865   -1.0667    7.6588 C.3       1 <1>         0.0000 
      9 O9        -13.0619    2.0867   11.3280 O.2       1 <1>         0.0000 
     10 C10       -16.8534   -0.8225   10.4870 C.3       1 <1>         0.0000 
     11 C11       -18.0718   -3.7550    6.8019 C.2       1 <1>         0.0000 
     12 C12       -19.2077   -2.8299    6.9952 C.2       1 <1>         0.0000 
     13 O13       -20.3089   -3.1588    6.5786 O.2       1 <1>         0.0000 
     14 C14       -15.3952   -1.9795    8.3907 C.2       1 <1>         0.0000 
     15 O15       -15.2759    0.4192    7.9705 O.3       1 <1>         0.0000 
     16 O16       -19.0311   -1.6641    7.6260 O.3       1 <1>         0.0000 
     17 C17       -15.7462   -4.5767    6.7857 C.3       1 <1>         0.0000 
     18 H1        -13.0362    1.5011    8.5740 H         1 <1>         0.0000 
     19 H2        -11.7437    0.7924    9.5672 H         1 <1>         0.0000 
     20 H3        -15.2936    0.9989   11.9070 H         1 <1>         0.0000 
     21 H4        -12.9428   -2.7024    9.7915 H         1 <1>         0.0000 
     22 C22       -17.6169   -0.2371   11.7042 C.3       1 <1>         0.0000 
     23 H5        -13.3453   -1.5134   11.0491 H         1 <1>         0.0000 
     24 H6        -11.7371   -1.5212   10.3008 H         1 <1>         0.0000 
     25 C25       -16.2982   -2.1483    7.4148 C.2       1 <1>         0.0000 
     26 H7        -12.9393   -2.0504    7.3149 H         1 <1>         0.0000 
     27 H8        -11.4978   -1.1307    7.8086 H         1 <1>         0.0000 
     28 H9        -12.7607   -0.3382    6.8546 H         1 <1>         0.0000 
     29 H10       -16.7341   -1.9046   10.6571 H         1 <1>         0.0000 
     30 H11       -17.4964   -0.6767    9.6046 H         1 <1>         0.0000 
     31 H12       -18.3443   -4.7578    6.4700 H         1 <1>         0.0000 
     32 H13       -15.0501   -2.8808    8.8923 H         1 <1>         0.0000 
     33 C33       -16.7720   -3.4864    7.0009 C.2       1 <1>         0.0000 
     34 H14       -14.9666    0.3313    7.0769 H         1 <1>         0.0000 
     35 H15       -19.8251   -1.1455    7.7038 H         1 <1>         0.0000 
     36 H16       -15.7547   -5.2608    7.6474 H         1 <1>         0.0000 
     37 H17       -14.7350   -4.1553    6.6778 H         1 <1>         0.0000 
     38 H18       -15.9682   -5.1509    5.8731 H         1 <1>         0.0000 
     39 H19       -17.7608    0.8482   11.5838 H         1 <1>         0.0000 
     40 H20       -17.0711   -0.4320   12.6405 H         1 <1>         0.0000 
     41 H21       -18.6093   -0.7091   11.7860 H         1 <1>         0.0000 
     42 H22       -16.7190   -1.2957    6.8851 H         1 <1>         0.0000 
@<TRIPOS>BOND
     1    2    1 1    
     2    2    3 1    
     3    3    4 1    
     4    4    5 2    
     5    5    6 1    
     6    1    6 1    
     7    1    7 1    
     8    1    8 1    
     9    3    9 2    
    10    5   10 1    
    11   33   11 2    
    12   11   12 1    
    13   12   13 2    
    14    6   14 1    
    15    6   15 1    
    16   12   16 1    
    17   33   17 1    
    18    2   18 1    
    19    2   19 1    
    20    4   20 1    
    21    7   21 1    
    22   10   22 1    
    23    7   23 1    
    24    7   24 1    
    25   14   25 2    
    26    8   26 1    
    27    8   27 1    
    28    8   28 1    
    29   10   29 1    
    30   10   30 1    
    31   11   31 1    
    32   14   32 1    
    33   25   33 1    
    34   15   34 1    
    35   16   35 1    
    36   17   36 1    
    37   17   37 1    
    38   17   38 1    
    39   22   39 1    
    40   22   40 1    
    41   22   41 1    
    42   25   42 1    
@<TRIPOS>SUBSTRUCTURE
     1 ****        2 TEMP              0 ****  ****    0 ROOT 
@<TRIPOS>NORMAL
@<TRIPOS>FF_PBC
FORCE_FIELD_SETUP_FEATURE Force Field Setup information
v1.0  0 0.000000 0.000000 0.000000 0.000000 0.000000 0.000000 NONE 0 0 0 0 0 0 0 0 0 0 0 0 0
@<TRIPOS>RENDERING_ATTRS
ANTIALIASED_LINES 
1,2,3,4,5,6,7,8,9,10,11,12,13,14,15,16,17,22,25,33
