#	Name:			PISM00097
#	Creating user name:	malab
#	Creation time:		Mon Apr 08 23:35:17 2019

#	Modifying user name:	malab
#	Modification time:	Mon Apr 08 23:38:55 2019

@<TRIPOS>MOLECULE
PISM00097
  104   107     1     2     0
SMALL
USER_CHARGES


@<TRIPOS>ATOM
      1 C1         30.7779   22.5956  -39.7081 C.3       1 <1>         0.0000 
      2 C2         29.6770   23.3318  -40.4227 C.2       1 <1>         0.0000 
      3 O3         29.8625   23.8315  -41.5221 O.2       1 <1>         0.0000 
      4 O4         28.5145   23.4026  -39.7507 O.3       1 <1>         0.0000 
      5 C5         27.4620   24.1166  -40.4370 C.3       1 <1>         0.0000 
      6 C6         26.2110   24.2523  -39.4985 C.3       1 <1>         0.0000 
      7 O7         26.7635   24.4285  -38.1769 O.3       1 <1>         0.0000 
      8 C8         27.5281   25.5043  -37.9954 C.2       1 <1>         0.0000 
      9 O9         28.5714   25.4017  -37.3708 O.2       1 <1>         0.0000 
     10 C10        27.0310   26.8295  -38.4890 C.3       1 <1>         0.0000 
     11 C11        25.5752   26.9332  -37.9674 C.3       1 <1>         0.0000 
     12 C12        24.4615   26.2939  -38.8997 C.3       1 <1>         0.0000 
     13 C13        25.1031   25.2933  -39.9794 C.3       1 <1>         0.0000 
     14 C14        23.3442   25.5789  -37.9855 C.3       1 <1>         0.0000 
     15 C15        22.2250   24.7519  -38.7674 C.3       1 <1>         0.0000 
     16 C16        20.9599   24.2729  -37.9752 C.3       1 <1>         0.0000 
     17 C17        20.5188   25.3369  -36.9391 C.3       1 <1>         0.0000 
     18 C18        21.7224   25.5219  -35.9867 C.3       1 <1>         0.0000 
     19 C19        22.7217   26.3335  -36.7867 C.2       1 <1>         0.0000 
     20 C20        22.9344   27.5940  -36.3749 C.2       1 <1>         0.0000 
     21 C21        21.0209   26.0155  -34.7416 C.2       1 <1>         0.0000 
     22 O22        21.6056   26.5325  -33.8041 O.2       1 <1>         0.0000 
     23 C23        19.5353   25.7789  -34.7324 C.3       1 <1>         0.0000 
     24 C24        19.3573   24.8973  -35.9967 C.3       1 <1>         0.0000 
     25 O25        25.4836   26.3332  -36.6507 O.3       1 <1>         0.0000 
     26 C26        26.1905   26.9085  -35.6668 C.2       1 <1>         0.0000 
     27 C27        26.2075   26.1109  -34.3908 C.3       1 <1>         0.0000 
     28 O28        26.7772   27.9750  -35.7629 O.2       1 <1>         0.0000 
     29 C29        25.6149   22.8162  -39.3420 C.3       1 <1>         0.0000 
     30 C30        25.3361   25.8120  -41.4542 C.3       1 <1>         0.0000 
     31 C31        25.3642   24.7360  -42.5193 C.2       1 <1>         0.0000 
     32 O32        26.1096   25.0222  -43.5966 O.3       1 <1>         0.0000 
     33 C33        26.0971   23.9892  -44.5999 C.3       1 <1>         0.0000 
     34 O34        24.7339   23.6945  -42.4090 O.2       1 <1>         0.0000 
     35 C35        23.8067   27.5111  -39.6524 C.3       1 <1>         0.0000 
     36 H1         31.6115   22.3739  -40.3939 H         1 <1>         0.0000 
     37 O37        22.3423   24.2868  -35.5916 O.3       1 <1>         0.0000 
     38 C38        20.0909   26.6703  -37.6435 C.3       1 <1>         0.0000 
     39 C39        19.3811   23.4181  -35.6929 C.2       1 <1>         0.0000 
     40 C40        20.0021   22.7389  -34.7266 C.2       1 <1>         0.0000 
     41 O41        19.8272   21.4133  -34.7417 O.3       1 <1>         0.0000 
     42 C42        19.0276   21.2642  -35.8033 C.2       1 <1>         0.0000 
     43 C43        18.6869   22.3791  -36.4496 C.2       1 <1>         0.0000 
     44 O44        21.7360   25.5105  -39.8909 O.3       1 <1>         0.0000 
     45 C45        21.5855   24.8420  -41.0420 C.2       1 <1>         0.0000 
     46 O46        21.1306   25.4428  -42.0003 O.2       1 <1>         0.0000 
     47 O47        19.8152   24.0564  -38.8284 O.3       1 <1>         0.0000 
     48 C48        19.8459   22.9378  -39.5677 C.2       1 <1>         0.0000 
     49 O49        20.7085   22.0795  -39.4605 O.2       1 <1>         0.0000 
     50 C50        18.7048   22.8447  -40.5522 C.3       1 <1>         0.0000 
     51 C51        18.7249   21.6072  -41.4999 C.3       1 <1>         0.0000 
     52 C52        18.4045   20.2919  -40.7268 C.3       1 <1>         0.0000 
     53 C53        18.3168   19.0504  -41.6555 C.3       1 <1>         0.0000 
     54 C54        20.0456   21.5161  -42.3168 C.3       1 <1>         0.0000 
     55 O55        18.7098   24.0342  -41.3587 O.3       1 <1>         0.0000 
     56 H2         30.3904   21.6487  -39.3037 H         1 <1>         0.0000 
     57 H3         31.1512   23.2118  -38.8763 H         1 <1>         0.0000 
     58 H4         27.2234   23.5620  -41.3556 H         1 <1>         0.0000 
     59 H5         27.8620   25.1039  -40.7041 H         1 <1>         0.0000 
     60 H6         27.1103   26.9856  -39.5669 H         1 <1>         0.0000 
     61 H7         27.6744   27.6008  -38.0314 H         1 <1>         0.0000 
     62 H8         25.4342   28.0199  -37.8871 H         1 <1>         0.0000 
     63 H9         24.2498   24.6793  -40.2510 H         1 <1>         0.0000 
     64 H10        23.9131   24.7860  -37.4749 H         1 <1>         0.0000 
     65 H11        22.6623   23.7888  -39.0833 H         1 <1>         0.0000 
     66 H12        21.1907   23.3427  -37.4273 H         1 <1>         0.0000 
     67 H13        22.4086   28.0206  -35.5269 H         1 <1>         0.0000 
     68 H14        23.5978   28.3390  -36.7808 H         1 <1>         0.0000 
     69 H15        19.0133   26.7449  -34.8158 H         1 <1>         0.0000 
     70 H16        19.1899   25.2820  -33.8126 H         1 <1>         0.0000 
     71 H17        18.3719   25.0802  -36.4538 H         1 <1>         0.0000 
     72 H18        26.7659   26.6395  -33.6041 H         1 <1>         0.0000 
     73 H19        26.6974   25.1425  -34.5800 H         1 <1>         0.0000 
     74 H20        25.1782   25.9362  -34.0394 H         1 <1>         0.0000 
     75 H21        24.8213   22.8114  -38.5813 H         1 <1>         0.0000 
     76 H22        26.3850   22.1018  -39.0086 H         1 <1>         0.0000 
     77 H23        25.1964   22.4364  -40.2848 H         1 <1>         0.0000 
     78 H24        26.2136   26.4606  -41.5545 H         1 <1>         0.0000 
     79 H25        24.4943   26.3893  -41.8560 H         1 <1>         0.0000 
     80 H26        26.7108   24.3371  -45.4425 H         1 <1>         0.0000 
     81 H27        25.0769   23.7972  -44.9694 H         1 <1>         0.0000 
     82 H28        26.5308   23.0537  -44.2121 H         1 <1>         0.0000 
     83 H29        24.5865   28.1032  -40.1584 H         1 <1>         0.0000 
     84 H30        23.2756   28.1969  -38.9846 H         1 <1>         0.0000 
     85 H31        23.0654   27.2505  -40.4101 H         1 <1>         0.0000 
     86 H32        23.0586   24.4247  -34.9807 H         1 <1>         0.0000 
     87 H33        20.8613   27.0922  -38.3016 H         1 <1>         0.0000 
     88 H34        19.8511   27.4533  -36.9108 H         1 <1>         0.0000 
     89 H35        19.1972   26.5039  -38.2642 H         1 <1>         0.0000 
     90 H36        20.6217   23.2013  -33.9615 H         1 <1>         0.0000 
     91 H37        18.6694   20.2847  -36.1188 H         1 <1>         0.0000 
     92 H38        18.0504   22.4964  -37.3253 H         1 <1>         0.0000 
     93 H39        21.8447   23.7990  -41.2107 H         1 <1>         0.0000 
     94 H40        17.7605   22.8304  -39.9830 H         1 <1>         0.0000 
     95 H41        17.9075   21.7645  -42.2271 H         1 <1>         0.0000 
     96 H42        17.4291   20.4039  -40.2232 H         1 <1>         0.0000 
     97 H43        19.1639   20.1069  -39.9512 H         1 <1>         0.0000 
     98 H44        17.9416   18.1813  -41.0913 H         1 <1>         0.0000 
     99 H45        19.3071   18.7872  -42.0569 H         1 <1>         0.0000 
    100 H46        17.6306   19.2437  -42.4955 H         1 <1>         0.0000 
    101 H47        20.2941   22.4955  -42.7510 H         1 <1>         0.0000 
    102 H48        19.9381   20.8081  -43.1522 H         1 <1>         0.0000 
    103 H49        20.8897   21.1818  -41.6976 H         1 <1>         0.0000 
    104 H50        18.6516   24.8316  -40.8418 H         1 <1>         0.0000 
@<TRIPOS>BOND
     1    2    1 1    
     2    2    3 2    
     3    2    4 1    
     4    4    5 1    
     5    5    6 1    
     6    6    7 1    
     7    7    8 1    
     8    8    9 2    
     9    8   10 1    
    10   11   10 1    
    11   12   11 1    
    12   13   12 1    
    13    6   13 1    
    14   12   14 1    
    15   14   15 1    
    16   15   16 1    
    17   16   17 1    
    18   18   17 1    
    19   19   18 1    
    20   14   19 1    
    21   19   20 2    
    22   18   21 1    
    23   21   22 2    
    24   21   23 1    
    25   23   24 1    
    26   17   24 1    
    27   11   25 1    
    28   25   26 1    
    29   26   27 1    
    30   26   28 2    
    31    6   29 1    
    32   13   30 1    
    33   30   31 1    
    34   31   32 1    
    35   32   33 1    
    36   31   34 2    
    37   12   35 1    
    38    1   36 1    
    39   18   37 1    
    40   17   38 1    
    41   24   39 1    
    42    1   56 1    
    43   40   41 1    
    44   42   41 1    
    45   43   42 2    
    46   39   43 1    
    47   15   44 1    
    48   44   45 1    
    49   45   46 2    
    50   16   47 1    
    51   47   48 1    
    52   48   49 2    
    53   48   50 1    
    54   50   51 1    
    55   51   52 1    
    56   52   53 1    
    57   51   54 1    
    58   50   55 1    
    59    1   57 1    
    60    5   58 1    
    61    5   59 1    
    62   10   60 1    
    63   10   61 1    
    64   11   62 1    
    65   13   63 1    
    66   14   64 1    
    67   15   65 1    
    68   16   66 1    
    69   20   67 1    
    70   20   68 1    
    71   23   69 1    
    72   23   70 1    
    73   24   71 1    
    74   27   72 1    
    75   27   73 1    
    76   27   74 1    
    77   29   75 1    
    78   29   76 1    
    79   29   77 1    
    80   30   78 1    
    81   30   79 1    
    82   33   80 1    
    83   33   81 1    
    84   33   82 1    
    85   35   83 1    
    86   35   84 1    
    87   35   85 1    
    88   37   86 1    
    89   38   87 1    
    90   38   88 1    
    91   38   89 1    
    92   40   90 1    
    93   39   40 2    
    94   42   91 1    
    95   43   92 1    
    96   45   93 1    
    97   50   94 1    
    98   51   95 1    
    99   52   96 1    
   100   52   97 1    
   101   53   98 1    
   102   53   99 1    
   103   53  100 1    
   104   54  101 1    
   105   54  102 1    
   106   54  103 1    
   107   55  104 1    
@<TRIPOS>SUBSTRUCTURE
     1 ****        2 TEMP              0 ****  ****    0 ROOT 
@<TRIPOS>NORMAL
@<TRIPOS>FF_PBC
FORCE_FIELD_SETUP_FEATURE Force Field Setup information
v1.0  0 0.000000 0.000000 0.000000 0.000000 0.000000 0.000000 NONE 0 0 0 0 0 0 0 0 0 0 0 0 0
@<TRIPOS>RENDERING_ATTRS
ANTIALIASED_LINES 
*
