#	Name:			PISM00262
#	Creating user name:	14062
#	Creation time:		Sat Apr 06 00:20:42 2019

#	Modifying user name:	14062
#	Modification time:	Sat Apr 06 00:23:52 2019

@<TRIPOS>MOLECULE
PISM00262
   34    36     1     1     0
SMALL
GAST_HUCK


@<TRIPOS>ATOM
      1 C1         -0.7229    2.2187    4.4952 C.ar      1 <1>        -0.0338 
      2 C2         -1.4095    1.7153    3.3867 C.ar      1 <1>        -0.0261 
      3 C3         -0.7799    0.8252    2.5071 C.ar      1 <1>         0.0402 
      4 C4          0.5343    0.4251    2.7770 C.ar      1 <1>        -0.0242 
      5 C5          1.2316    0.9278    3.8813 C.ar      1 <1>         0.0460 
      6 C6          0.5935    1.8233    4.7460 C.ar      1 <1>        -0.0336 
      7 C7          2.6814    0.4963    4.1329 C.3       1 <1>         0.3764 
      8 F8          2.6797   -0.6894    4.7974 F         1 <1>        -0.2201 
      9 F9          3.3428    1.4228    4.8782 F         1 <1>        -0.2201 
     10 F10         3.3366    0.3427    2.9507 F         1 <1>        -0.2201 
     11 C11        -1.4678    0.2773    1.2720 C.2       1 <1>         0.1298 
     12 C12        -2.6157    0.7476    0.7755 C.2       1 <1>        -0.0474 
     13 C13        -2.8422   -0.0941   -0.3960 C.2       1 <1>        -0.0494 
     14 C14        -1.7974   -0.9245   -0.3864 C.2       1 <1>         0.1149 
     15 O15        -0.9176   -0.7412    0.6018 O.3       1 <1>        -0.2552 
     16 C16        -1.5562   -1.9803   -1.3850 C.2       1 <1>        -0.0004 
     17 C17        -2.4558   -2.8363   -1.8857 C.2       1 <1>         0.1189 
     18 S18        -2.0037   -4.0131   -3.1348 S.3       1 <1>         0.0223 
     19 C19        -3.6950   -4.5871   -3.1890 C.2       1 <1>         0.1617 
     20 N20        -4.4769   -3.9384   -2.2982 N.am      1 <1>        -0.1898 
     21 C21        -3.8766   -2.9930   -1.5486 C.2       1 <1>         0.2506 
     22 O22        -4.4305   -2.3445   -0.6776 O.2       1 <1>        -0.3737 
     23 S23        -4.2306   -5.8165   -4.2501 S.2       1 <1>        -0.2522 
     24 C24        -5.8946   -4.2660   -2.1531 C.3       1 <1>         0.0522 
     25 H1         -1.2142    2.9187    5.1650 H         1 <1>         0.0692 
     26 H2         -2.4356    2.0255    3.2291 H         1 <1>         0.0845 
     27 H3          1.0268   -0.2852    2.1203 H         1 <1>         0.0835 
     28 H4          1.1142    2.2138    5.6153 H         1 <1>         0.0835 
     29 H5         -3.2635    1.5565    1.1070 H         1 <1>         0.0416 
     30 H6         -3.6695   -0.0297   -1.1014 H         1 <1>         0.0411 
     31 H7         -0.5273   -2.0565   -1.7349 H         1 <1>         0.0606 
     32 H8         -6.3993   -3.6422   -1.3988 H         1 <1>         0.0564 
     33 H9         -6.0005   -5.3196   -1.8509 H         1 <1>         0.0564 
     34 H10        -6.4109   -4.1213   -3.1149 H         1 <1>         0.0564 
@<TRIPOS>BOND
     1    2    1 ar   
     2    2    3 ar   
     3    3    4 ar   
     4    4    5 ar   
     5    5    6 ar   
     6    1    6 ar   
     7    5    7 1    
     8    7    8 1    
     9    7    9 1    
    10    7   10 1    
    11    3   11 1    
    12   11   12 2    
    13   12   13 1    
    14   13   14 2    
    15   14   15 1    
    16   11   15 1    
    17   14   16 1    
    18   16   17 2    
    19   17   18 1    
    20   18   19 1    
    21   19   20 am   
    22   20   21 am   
    23   17   21 1    
    24   21   22 2    
    25   19   23 2    
    26   20   24 1    
    27    1   25 1    
    28    2   26 1    
    29    4   27 1    
    30    6   28 1    
    31   12   29 1    
    32   13   30 1    
    33   16   31 1    
    34   24   32 1    
    35   24   33 1    
    36   24   34 1    
@<TRIPOS>SUBSTRUCTURE
     1 ****        2 TEMP              0 ****  ****    0 ROOT 
@<TRIPOS>NORMAL
@<TRIPOS>FF_PBC
FORCE_FIELD_SETUP_FEATURE Force Field Setup information
v1.0  0 0.000000 0.000000 0.000000 0.000000 0.000000 0.000000 NONE 0 0 0 0 1 0 0 0 0 0 0 0 0
