#	Name:			PISM00267
#	Creating user name:	root
#	Creation time:		Wed Jun 26 13:45:56 2019

#	Modifying user name:	root
#	Modification time:	Wed Jun 26 13:46:48 2019

@<TRIPOS>MOLECULE
PISM00267
   31    33     1     1     0
SMALL
GAST_HUCK


@<TRIPOS>ATOM
      1 C1          1.8398   -6.0280   -1.2976 C.ar      1 <1>        -0.0638 
      2 C2          1.1041   -5.0045   -0.6919 C.ar      1 <1>        -0.0544 
      3 C3          1.3377   -3.6637   -1.0259 C.ar      1 <1>         0.0108 
      4 C4          2.3171   -3.3702   -1.9833 C.ar      1 <1>        -0.0544 
      5 C5          3.0544   -4.3904   -2.5913 C.ar      1 <1>        -0.0638 
      6 C6          2.8171   -5.7234   -2.2481 C.ar      1 <1>        -0.0643 
      7 C7          0.5746   -2.5139   -0.3961 C.2       1 <1>         0.1230 
      8 C8         -0.3528   -2.6429    0.5579 C.2       1 <1>        -0.0479 
      9 C9         -0.7684   -1.2640    0.8048 C.2       1 <1>        -0.0493 
     10 C10        -0.0190   -0.5574   -0.0434 C.2       1 <1>         0.1149 
     11 O11         0.8205   -1.2627   -0.7978 O.3       1 <1>        -0.2558 
     12 C12        -0.0871    0.9134   -0.1546 C.2       1 <1>        -0.0003 
     13 C13         0.4594    1.7110   -1.0837 C.2       1 <1>         0.1189 
     14 C14         1.2634    1.4001   -2.2773 C.2       1 <1>         0.2507 
     15 N15         1.6486    2.5099   -2.9392 N.am      1 <1>        -0.1898 
     16 C16         1.2409    3.6921   -2.4304 C.2       1 <1>         0.1617 
     17 S17         0.2470    3.4720   -0.9659 S.3       1 <1>         0.0223 
     18 O18         1.5462    0.2698   -2.6338 O.2       1 <1>        -0.3737 
     19 S19         1.6142    5.2261   -3.0883 S.2       1 <1>        -0.2522 
     20 H1          1.6519   -7.0634   -1.0295 H         1 <1>         0.0611 
     21 H2          0.3518   -5.2763    0.0378 H         1 <1>         0.0603 
     22 H3          2.5151   -2.3405   -2.2649 H         1 <1>         0.0603 
     23 H4          3.8118   -4.1470   -3.3305 H         1 <1>         0.0611 
     24 H5          3.3889   -6.5181   -2.7176 H         1 <1>         0.0596 
     25 H6         -0.7472   -3.5194    1.0673 H         1 <1>         0.0416 
     26 H7         -1.5147   -0.9112    1.5157 H         1 <1>         0.0412 
     27 H8         -0.6602    1.4081    0.6298 H         1 <1>         0.0606 
     28 C28         2.4682    2.4503   -4.1492 C.3       1 <1>         0.0522 
     29 H9          2.6931    1.4187   -4.4611 H         1 <1>         0.0564 
     30 H10         3.4235    2.9686   -3.9745 H         1 <1>         0.0564 
     31 H11         1.9435    2.9473   -4.9797 H         1 <1>         0.0564 
@<TRIPOS>BOND
     1    2    1 ar   
     2    2    3 ar   
     3    3    4 ar   
     4    4    5 ar   
     5    5    6 ar   
     6    1    6 ar   
     7    3    7 1    
     8    7    8 2    
     9    8    9 1    
    10    9   10 2    
    11   10   11 1    
    12    7   11 1    
    13   10   12 1    
    14   12   13 2    
    15   13   14 1    
    16   14   15 am   
    17   15   16 am   
    18   16   17 1    
    19   13   17 1    
    20   14   18 2    
    21   16   19 2    
    22    1   20 1    
    23    2   21 1    
    24    4   22 1    
    25    5   23 1    
    26    6   24 1    
    27    8   25 1    
    28    9   26 1    
    29   12   27 1    
    30   15   28 1    
    31   28   29 1    
    32   28   30 1    
    33   28   31 1    
@<TRIPOS>SUBSTRUCTURE
     1 ****        2 TEMP              0 ****  ****    0 ROOT 
@<TRIPOS>NORMAL
@<TRIPOS>FF_PBC
FORCE_FIELD_SETUP_FEATURE Force Field Setup information
v1.0  0 0.000000 0.000000 0.000000 0.000000 0.000000 0.000000 NONE 0 0 0 0 1 0 0 0 0 0 0 0 0
