#	Name:			PISM00154
#	Creating user name:	14062
#	Creation time:		Wed Jun 19 15:29:04 2019

#	Modifying user name:	14062
#	Modification time:	Wed Jun 19 15:30:25 2019

@<TRIPOS>MOLECULE
PISM00154
   24    25     1     1     0
SMALL
GAST_HUCK


@<TRIPOS>ATOM
      1 C1          7.1852   -5.1964   12.8516 C.ar      1 BENZYL     -0.0701 
      2 C1          8.5305   -5.0902   13.2054 C.ar      1 BENZYL     -0.0627 
      3 C2          9.5290   -5.3241   12.2531 C.ar      1 BENZYL     -0.0239 
      4 C3          9.1841   -5.6638   10.9349 C.ar      1 BENZYL     -0.0099 
      5 C4         10.2177   -5.9068   10.0171 C.ar      1 BENZYL     -0.0546 
      6 C5         11.5589   -5.7994   10.3950 C.ar      1 BENZYL     -0.0625 
      7 C6         11.8906   -5.4508   11.7048 C.ar      1 BENZYL     -0.0629 
      8 C7         10.8733   -5.2157   12.6314 C.ar      1 BENZYL     -0.0568 
      9 C9          7.8278   -5.7520   10.5741 C.ar      1 BENZYL     -0.0124 
     10 C10         6.8392   -5.5304   11.5415 C.ar      1 BENZYL     -0.0582 
     11 C11         7.3812   -6.0877    9.1397 C.3       1 BENZYL      0.0838 
     12 C12         7.7174   -7.5159    8.8115 C.2       1 BENZYL      0.2438 
     13 O13         8.2624   -7.8242    7.7638 O.2       1 BENZYL     -0.3672 
     14 O14         7.3757   -8.4200    9.7289 O.3       1 BENZYL     -0.2911 
     15 H1          6.4111   -5.0200   13.5928 H         1 BENZYL      0.0596 
     16 H2          8.7876   -4.8254   14.2266 H         1 BENZYL      0.0546 
     17 H3         10.0143   -6.1856    8.9907 H         1 BENZYL      0.0628 
     18 H4         12.3456   -5.9873    9.6701 H         1 BENZYL      0.0602 
     19 H5         12.9318   -5.3639   12.0003 H         1 BENZYL      0.0616 
     20 H6         11.1419   -4.9481   13.6489 H         1 BENZYL      0.0609 
     21 H7          5.7870   -5.6154   11.2888 H         1 BENZYL      0.0535 
     22 H8          7.8560   -5.3965    8.4278 H         1 BENZYL      0.0687 
     23 H9          6.2942   -5.9842    9.0110 H         1 BENZYL      0.0687 
     24 H10         7.6239   -9.2955    9.4532 H         1 BENZYL      0.2541 
@<TRIPOS>BOND
     1    2    3 ar   
     2    3    4 ar   
     3    3    8 ar   
     4    8    7 ar   
     5    7    6 ar   
     6    6    5 ar   
     7    5    4 ar   
     8    2    1 ar   
     9    4    9 ar   
    10    9   10 ar   
    11    1   10 ar   
    12    9   11 1    
    13   11   12 1    
    14   12   13 2    
    15   12   14 1    
    16    1   15 1    
    17    2   16 1    
    18    5   17 1    
    19    6   18 1    
    20    7   19 1    
    21    8   20 1    
    22   10   21 1    
    23   11   22 1    
    24   11   23 1    
    25   14   24 1    
@<TRIPOS>SUBSTRUCTURE
     1 BENZYL      2 PERM              0 ****  ****    0 ROOT 
@<TRIPOS>NORMAL
@<TRIPOS>FF_PBC
FORCE_FIELD_SETUP_FEATURE Force Field Setup information
v1.0  0 0.000000 0.000000 0.000000 0.000000 0.000000 0.000000 NONE 0 0 0 0 1 0 0 0 0 0 0 0 0
