#	Name:			PISM00693
#	Creating user name:	baoopengkun
#	Creation time:		Sat Dec 08 17:21:01 2018

#	Modifying user name:	baoopengkun
#	Modification time:	Sat Dec 08 17:21:33 2018

@<TRIPOS>MOLECULE
PISM00693
   36    38     3     2     0
SMALL
GAST_HUCK


@<TRIPOS>ATOM
      1 C1         26.2583   33.1109  -10.4309 C.3       1 PHENYL      0.0627 
      2 C          25.6197   32.4173  -11.6491 C.ar      1 PHENYL     -0.0610 
      3 C          24.8063   31.2986  -11.4351 C.ar      1 PHENYL     -0.0556 
      4 C          24.2192   30.6270  -12.5111 C.ar      1 PHENYL     -0.0444 
      5 C          24.4384   31.0753  -13.8161 C.ar      1 PHENYL     -0.0445 
      6 C          25.2386   32.1993  -14.0379 C.ar      1 PHENYL     -0.0444 
      7 C          25.8201   32.8720  -12.9588 C.ar      1 PHENYL     -0.0556 
      8 C          27.4327   34.0256  -10.8293 C.ar      2 PHENYL     -0.0245 
      9 C          28.6402   33.4399  -11.2263 C.ar      2 PHENYL      0.1444 
     10 C          29.7404   34.2319  -11.5637 C.ar      2 PHENYL     -0.0090 
     11 C          29.6400   35.6247  -11.5215 C.ar      2 PHENYL     -0.0457 
     12 C          28.4309   36.2185  -11.1501 C.ar      2 PHENYL     -0.0478 
     13 C          27.3310   35.4233  -10.8141 C.ar      2 PHENYL     -0.0563 
     14 C          25.2010   33.8809   -9.6196 C.ar      3 PHENYL     -0.0631 
     15 C          23.9883   34.2968  -10.1854 C.ar      3 PHENYL     -0.0558 
     16 C          23.0385   34.9665   -9.4082 C.ar      3 PHENYL     -0.0085 
     17 C          23.3011   35.2448   -8.0653 C.ar      3 PHENYL      0.1547 
     18 C          24.5169   34.8551   -7.5001 C.ar      3 PHENYL     -0.0085 
     19 C          25.4623   34.1797   -8.2770 C.ar      3 PHENYL     -0.0558 
     20 O20        26.7476   32.0876   -9.5444 O.3       1 PHENYL     -0.4553 
     21 F21        22.3953   35.8811   -7.3265 F         3 PHENYL     -0.1654 
     22 H1         24.6268   30.9484  -10.4232 H         1 PHENYL      0.0753 
     23 H2         23.5936   29.7577  -12.3325 H         1 PHENYL      0.0667 
     24 H3         23.9882   30.5526  -14.6545 H         1 PHENYL      0.0765 
     25 H4         25.4084   32.5510  -15.0511 H         1 PHENYL      0.0667 
     26 H5         26.4238   33.7510  -13.1556 H         1 PHENYL      0.0753 
     27 F27        28.7509   32.1138  -11.2890 F         2 PHENYL     -0.1659 
     28 H7         30.6711   33.7585  -11.8583 H         2 PHENYL      0.0654 
     29 H29        30.4963   36.2419  -11.7766 H         2 PHENYL      0.0758 
     30 H9         28.3458   37.3009  -11.1229 H         2 PHENYL      0.0636 
     31 H10        26.4002   35.9107  -10.5452 H         2 PHENYL      0.0742 
     32 H11        23.7695   34.1096  -11.2311 H         3 PHENYL      0.0749 
     33 H12        22.0934   35.2744   -9.8434 H         3 PHENYL      0.0661 
     34 H13        24.7219   35.0790   -6.4585 H         3 PHENYL      0.0661 
     35 H35        26.4081   33.8866   -7.8316 H         3 PHENYL      0.0749 
     36 H15        27.3915   31.5211   -9.9589 H         1 PHENYL      0.1835 
@<TRIPOS>BOND
     1    2    3 ar   
     2    2    7 ar   
     3    7    6 ar   
     4    6    5 ar   
     5    5    4 ar   
     6    4    3 ar   
     7    2    1 1    
     8    8    9 ar   
     9    8   13 ar   
    10   13   12 ar   
    11   12   11 ar   
    12   11   10 ar   
    13   10    9 ar   
    14    1    8 1    
    15   14   15 ar   
    16   14   19 ar   
    17   19   18 ar   
    18   18   17 ar   
    19   17   16 ar   
    20   16   15 ar   
    21    1   14 1    
    22    1   20 1    
    23   17   21 1    
    24    3   22 1    
    25    4   23 1    
    26    5   24 1    
    27    6   25 1    
    28    7   26 1    
    29    9   27 1    
    30   10   28 1    
    31   11   29 1    
    32   12   30 1    
    33   13   31 1    
    34   15   32 1    
    35   16   33 1    
    36   18   34 1    
    37   19   35 1    
    38   20   36 1    
@<TRIPOS>SUBSTRUCTURE
     1 PHENYL      2 PERM              0 ****  ****    2 ROOT 
     2 PHENYL      8 PERM              0 ****  ****    1  
     3 PHENYL     14 PERM              0 ****  ****    1  
@<TRIPOS>NORMAL
@<TRIPOS>FF_PBC
FORCE_FIELD_SETUP_FEATURE Force Field Setup information
v1.0  0 0.000000 0.000000 0.000000 0.000000 0.000000 0.000000 NONE 0 0 0 0 1 0 0 0 0 0 0 0 0
@<TRIPOS>RENDERING_ATTRS
ANTIALIASED_LINES 
*
