#	Name:			PISM01087
#	Creating user name:	Qinrunwen
#	Creation time:		Mon Apr 01 11:55:35 2019

#	Modifying user name:	Qinrunwen
#	Modification time:	Mon Apr 01 11:59:48 2019

@<TRIPOS>MOLECULE
PISM01087
   34    36     1     1     0
SMALL
GAST_HUCK


@<TRIPOS>ATOM
      1 C1         10.4355   27.0368    1.8549 C.3       1 <1>         0.0573 
      2 O2         10.7481   28.4379    1.8254 O.3       1 <1>        -0.3245 
      3 C3         12.0154   28.7404    2.3220 C.ar      1 <1>         0.1121 
      4 C4         13.0780   28.9237    1.4309 C.ar      1 <1>         0.0789 
      5 C5         14.3617   29.1614    1.9346 C.ar      1 <1>        -0.0491 
      6 C6         14.5601   29.2990    3.3102 C.ar      1 <1>        -0.0810 
      7 C7         13.4857   29.1600    4.1942 C.ar      1 <1>        -0.0805 
      8 C8         12.2142   28.8620    3.7001 C.ar      1 <1>        -0.0406 
      9 N9         12.8456   28.8697    0.0293 N.3       1 <1>        -0.2071 
     10 C10        13.3967   29.9014   -0.6175 C.2       1 <1>         0.1324 
     11 C11        13.0477   31.1735   -0.3759 C.2       1 <1>         0.1143 
     12 Cl12       11.8001   31.5403    0.8013 Cl        1 <1>        -0.0835 
     13 C13        13.6972   32.2912   -1.0818 C.2       1 <1>         0.1522 
     14 C14        14.7543   32.0193   -2.1288 C.ar      1 <1>         0.0447 
     15 C15        15.1012   30.6935   -2.4014 C.ar      1 <1>         0.0561 
     16 C16        14.4318   29.5855   -1.6202 C.2       1 <1>         0.2010 
     17 O17        14.7508   28.4245   -1.8187 O.2       1 <1>        -0.3479 
     18 O18        13.3903   33.4418   -0.8222 O.2       1 <1>        -0.3803 
     19 C19        15.3822   33.0648   -2.8124 C.ar      1 <1>        -0.0396 
     20 C20        16.3359   32.7798   -3.7932 C.ar      1 <1>        -0.0523 
     21 C21        16.6679   31.4533   -4.0859 C.ar      1 <1>        -0.0523 
     22 C22        16.0567   30.4121   -3.3819 C.ar      1 <1>        -0.0385 
     23 H1         11.1220   26.4703    1.2068 H         1 <1>         0.0574 
     24 H2          9.4104   26.9144    1.4764 H         1 <1>         0.0574 
     25 H3         10.4833   26.6406    2.8821 H         1 <1>         0.0574 
     26 H4         15.2112   29.2433    1.2633 H         1 <1>         0.0515 
     27 H5         15.5530   29.5185    3.6900 H         1 <1>         0.0499 
     28 H6         13.6404   29.2852    5.2615 H         1 <1>         0.0507 
     29 H7         11.3781   28.7299    4.3811 H         1 <1>         0.0512 
     30 H8         11.7862   28.7966   -0.1895 H         1 <1>         0.1844 
     31 H9         15.1338   34.0976   -2.5847 H         1 <1>         0.0680 
     32 H10        16.8176   33.5886   -4.3328 H         1 <1>         0.0662 
     33 H11        17.3989   31.2304   -4.8591 H         1 <1>         0.0661 
     34 H12        16.3250   29.3824   -3.6000 H         1 <1>         0.0682 
@<TRIPOS>BOND
     1    2    1 1    
     2    2    3 1    
     3    3    4 ar   
     4    4    5 ar   
     5    5    6 ar   
     6    6    7 ar   
     7    7    8 ar   
     8    3    8 ar   
     9    4    9 1    
    10    9   10 1    
    11   10   11 2    
    12   11   12 1    
    13   11   13 1    
    14   13   14 1    
    15   14   15 ar   
    16   15   16 1    
    17   10   16 1    
    18   16   17 2    
    19   13   18 2    
    20   14   19 ar   
    21   19   20 ar   
    22   20   21 ar   
    23   21   22 ar   
    24   15   22 ar   
    25    1   23 1    
    26    1   24 1    
    27    1   25 1    
    28    5   26 1    
    29    6   27 1    
    30    7   28 1    
    31    8   29 1    
    32    9   30 1    
    33   19   31 1    
    34   20   32 1    
    35   21   33 1    
    36   22   34 1    
@<TRIPOS>SUBSTRUCTURE
     1 ****        2 TEMP              0 ****  ****    0 ROOT 
@<TRIPOS>NORMAL
@<TRIPOS>FF_PBC
FORCE_FIELD_SETUP_FEATURE Force Field Setup information
v1.0  0 0.000000 0.000000 0.000000 0.000000 0.000000 0.000000 NONE 0 0 0 0 1 0 0 0 0 0 0 0 0
