#	Name:			PISM01096
#	Creating user name:	14062
#	Creation time:		Fri Jul 12 01:13:40 2019

#	Modifying user name:	14062
#	Modification time:	Fri Jul 12 01:14:31 2019

@<TRIPOS>MOLECULE
PISM01096
   36    39     1     1     0
SMALL
GAST_HUCK


@<TRIPOS>ATOM
      1 Br          5.7038    0.1752    1.9032 Br        1 <1>        -0.0528 
      2 O           0.3932   -4.4599   -0.0928 O.3       1 <1>        -0.0768 
      3 O          -6.9051    1.1414   -0.0502 O.3       1 <1>        -0.3399 
      4 N          -1.3615    1.0026    0.4963 N.pl3     1 <1>        -0.2524 
      5 N           1.2374    1.2232   -0.5945 N.pl3     1 <1>        -0.2460 
      6 N          -1.1981   -1.3113    0.3201 N.ar      1 <1>        -0.2540 
      7 N           1.4512   -1.0888   -0.4545 N.ar      1 <1>        -0.2526 
      8 N          -0.7591   -3.7075    0.2189 N.ar      1 <1>        -0.0958 
      9 N           1.4074   -3.5257   -0.3909 N.ar      1 <1>        -0.0952 
     10 C          -0.6311   -0.0925    0.1732 C.ar      1 <1>         0.1985 
     11 C           0.6944    0.0195   -0.2890 C.ar      1 <1>         0.2005 
     12 C          -2.7092    1.0333    0.3396 C.ar      1 <1>         0.0565 
     13 C           2.5691    1.4554   -0.4746 C.ar      1 <1>         0.0695 
     14 C          -0.4427   -2.4068    0.1141 C.ar      1 <1>         0.1547 
     15 C           0.8840   -2.2955   -0.2663 C.ar      1 <1>         0.1555 
     16 C          -3.4933    1.8091    1.2016 C.ar      1 <1>        -0.0451 
     17 C          -3.3402    0.3089   -0.6800 C.ar      1 <1>        -0.0451 
     18 C           3.3293    0.8249    0.5189 C.ar      1 <1>        -0.0276 
     19 C           3.2018    2.3477   -1.3488 C.ar      1 <1>        -0.0345 
     20 C          -4.8835    1.8430    1.0601 C.ar      1 <1>        -0.0415 
     21 C          -4.7324    0.3269   -0.8107 C.ar      1 <1>        -0.0415 
     22 C          -5.5121    1.0982    0.0596 C.ar      1 <1>         0.0769 
     23 C           4.7061    1.0493    0.6096 C.ar      1 <1>         0.0041 
     24 C           4.5749    2.5900   -1.2485 C.ar      1 <1>        -0.0681 
     25 C           5.3303    1.9340   -0.2734 C.ar      1 <1>        -0.0633 
     26 H          -0.8877    1.8062    0.9359 H         1 <1>         0.2169 
     27 H           0.6328    1.9572   -0.9939 H         1 <1>         0.2195 
     28 H          -3.0263    2.3890    1.9912 H         1 <1>         0.0517 
     29 H          -2.7558   -0.2700   -1.3877 H         1 <1>         0.0517 
     30 H           2.8586    0.1609    1.2357 H         1 <1>         0.0568 
     31 H           2.6284    2.8568   -2.1168 H         1 <1>         0.0564 
     32 H          -5.4845    2.4492    1.7300 H         1 <1>         0.0518 
     33 H          -5.1996   -0.2608   -1.5944 H         1 <1>         0.0518 
     34 H           5.0554    3.2865   -1.9290 H         1 <1>         0.0595 
     35 H           6.3987    2.1117   -0.2013 H         1 <1>         0.0549 
     36 H          -7.2620    0.5946   -0.7408 H         1 <1>         0.2447 
@<TRIPOS>BOND
     1   23    1 1    
     2    8    2 ar   
     3    9    2 ar   
     4   22    3 1    
     5    3   36 1    
     6    4   10 1    
     7   12    4 1    
     8    4   26 1    
     9   11    5 1    
    10    5   13 1    
    11    5   27 1    
    12   10    6 ar   
    13    6   14 ar   
    14   11    7 ar   
    15    7   15 ar   
    16   14    8 ar   
    17   15    9 ar   
    18   10   11 ar   
    19   16   12 ar   
    20   12   17 ar   
    21   13   18 ar   
    22   13   19 ar   
    23   14   15 ar   
    24   20   16 ar   
    25   16   28 1    
    26   17   21 ar   
    27   17   29 1    
    28   18   23 ar   
    29   18   30 1    
    30   19   24 ar   
    31   19   31 1    
    32   20   22 ar   
    33   20   32 1    
    34   21   22 ar   
    35   21   33 1    
    36   23   25 ar   
    37   24   25 ar   
    38   24   34 1    
    39   25   35 1    
@<TRIPOS>SUBSTRUCTURE
     1 ****        1 TEMP              0 ****  ****    0 ROOT 
@<TRIPOS>NORMAL
@<TRIPOS>FF_PBC
FORCE_FIELD_SETUP_FEATURE Force Field Setup information
v1.0  0 0.000000 0.000000 0.000000 0.000000 0.000000 0.000000 NONE 0 0 0 0 1 0 0 0 0 0 0 0 0
