#	Name:			PISM00763
#	Creating user name:	baoopengkun
#	Creation time:		Sun Dec 02 11:38:55 2018

#	Modifying user name:	baoopengkun
#	Modification time:	Sun Dec 02 11:56:33 2018

@<TRIPOS>MOLECULE
PISM00763
   40    42     1     2     0
SMALL
GAST_HUCK


@<TRIPOS>ATOM
      1 C1          2.3408    6.2508   -3.7855 C.2       1 PHENYL      0.1196 
      2 C2          2.7680    7.5750   -4.3669 C.3       1 PHENYL      0.0602 
      3 C3          2.7403    7.5747   -5.9158 C.3       1 PHENYL     -0.0251 
      4 C4          1.3532    5.4582   -6.0479 C.3       1 PHENYL     -0.0266 
      5 C5          1.6780    5.2029   -4.5935 C.2       1 PHENYL      0.0204 
      6 O6          2.5507    6.0477   -2.6004 O.2       1 PHENYL     -0.3970 
      7 C7          1.3624    4.0213   -4.0437 C.2       1 PHENYL      0.0765 
      8 O8          0.7636    3.0813   -4.7918 O.3       1 PHENYL     -0.2719 
      9 C9          0.4820    1.8677   -4.0752 C.3       1 PHENYL      0.2384 
     10 O10         1.7063    1.2848   -3.5831 O.3       1 PHENYL     -0.2305 
     11 C11         1.8379    0.1397   -4.2408 C.2       1 PHENYL      0.2495 
     12 C12         0.7623   -0.1757   -5.1740 C.2       1 PHENYL      0.0293 
     13 C13        -0.0605    0.8653   -5.0638 C.2       1 PHENYL     -0.0010 
     14 C14         0.6140   -1.3965   -6.0403 C.3       1 PHENYL     -0.0323 
     15 O15         2.7929   -0.5975   -4.0676 O.2       1 PHENYL     -0.3691 
     16 C16         1.4098    6.9626   -6.4162 C.3       1 PHENYL     -0.0444 
     17 C           4.1775    7.9710   -3.8963 C.ar      1 PHENYL     -0.0238 
     18 C           5.1986    7.0142   -3.8540 C.ar      1 PHENYL     -0.0578 
     19 C           6.4816    7.3656   -3.4244 C.ar      1 PHENYL     -0.0681 
     20 C           6.7533    8.6801   -3.0357 C.ar      1 PHENYL     -0.0684 
     21 C           5.7398    9.6411   -3.0797 C.ar      1 PHENYL     -0.0681 
     22 C           4.4576    9.2874   -3.5105 C.ar      1 PHENYL     -0.0578 
     23 H1          2.0336    8.3021   -3.9853 H         1 PHENYL      0.0667 
     24 H2          3.5828    6.9835   -6.3109 H         1 PHENYL      0.0313 
     25 H3          2.8471    8.6098   -6.2814 H         1 PHENYL      0.0313 
     26 H4          0.3490    5.0766   -6.2962 H         1 PHENYL      0.0353 
     27 H5          2.0898    4.9035   -6.6515 H         1 PHENYL      0.0353 
     28 H6          1.6061    3.8499   -2.9917 H         1 PHENYL      0.1073 
     29 H7         -0.2357    2.0246   -3.2520 H         1 PHENYL      0.1210 
     30 H8         -0.9934    0.9860   -5.6131 H         1 PHENYL      0.0706 
     31 H9          0.9781   -1.1717   -7.0537 H         1 PHENYL      0.0347 
     32 H10        -0.4421   -1.7006   -6.0949 H         1 PHENYL      0.0347 
     33 H11         1.2027   -2.2281   -5.6246 H         1 PHENYL      0.0347 
     34 H12         0.5621    7.4956   -5.9540 H         1 PHENYL      0.0282 
     35 H13         1.3300    7.0760   -7.5108 H         1 PHENYL      0.0282 
     36 H14         5.0003    5.9907   -4.1561 H         1 PHENYL      0.0561 
     37 H15         7.2673    6.6170   -3.3923 H         1 PHENYL      0.0600 
     38 H16         7.7491    8.9538   -2.7004 H         1 PHENYL      0.0561 
     39 H17         5.9488   10.6633   -2.7791 H         1 PHENYL      0.0600 
     40 H18         3.6815   10.0452   -3.5442 H         1 PHENYL      0.0561 
@<TRIPOS>BOND
     1    2    1 1    
     2    2    3 1    
     3    5    4 1    
     4   16    4 1    
     5    1    5 1    
     6    1    6 2    
     7    5    7 2    
     8    7    8 1    
     9    8    9 1    
    10    9   10 1    
    11   10   11 1    
    12   12   11 1    
    13   13   12 2    
    14    9   13 1    
    15   12   14 1    
    16   11   15 2    
    17    3   16 1    
    18   17   18 ar   
    19   17   22 ar   
    20   22   21 ar   
    21   21   20 ar   
    22   19   20 ar   
    23   18   19 ar   
    24   17    2 1    
    25    2   23 1    
    26    3   24 1    
    27    3   25 1    
    28    4   26 1    
    29    4   27 1    
    30    7   28 1    
    31    9   29 1    
    32   13   30 1    
    33   14   31 1    
    34   14   32 1    
    35   14   33 1    
    36   16   34 1    
    37   16   35 1    
    38   18   36 1    
    39   19   37 1    
    40   20   38 1    
    41   21   39 1    
    42   22   40 1    
@<TRIPOS>SUBSTRUCTURE
     1 PHENYL     17 PERM              0 ****  ****    0 ROOT 
@<TRIPOS>NORMAL
@<TRIPOS>FF_PBC
FORCE_FIELD_SETUP_FEATURE Force Field Setup information
v1.0  0 0.000000 0.000000 0.000000 0.000000 0.000000 0.000000 NONE 0 0 0 0 1 0 0 0 0 0 0 0 0
@<TRIPOS>RENDERING_ATTRS
ANTIALIASED_LINES 
1,2,3,4,5,6,7,8,9,10,11,12,13,14,15,16
