#	Name:			PISM00804
#	Creating user name:	baoopengkun
#	Creation time:		Tue Nov 20 11:41:17 2018

#	Modifying user name:	baoopengkun
#	Modification time:	Tue Nov 20 11:54:53 2018

@<TRIPOS>MOLECULE
PISM00804
   40    43     1     2     0
SMALL
GAST_HUCK


@<TRIPOS>ATOM
      1 C1         30.8125    9.8190  -21.8551 C.3       1 <1>        -0.0354 
      2 C2         30.5052   11.3121  -21.5556 C.3       1 <1>        -0.0465 
      3 C3         30.0539   11.4906  -20.0800 C.3       1 <1>        -0.0466 
      4 C4         28.7145   10.7460  -19.8230 C.3       1 <1>        -0.0380 
      5 C5         28.7938    9.3696  -20.4243 C.2       1 <1>        -0.0848 
      6 C6         29.7026    8.9670  -21.3044 C.2       1 <1>        -0.0549 
      7 C7         27.8013    8.3080  -20.0699 C.3       1 <1>        -0.0267 
      8 C8         28.5113    7.0516  -20.6583 C.3       1 <1>         0.0281 
      9 C9         29.5437    7.5389  -21.7309 C.3       1 <1>         0.1097 
     10 O10        30.7992    6.8533  -21.5679 O.3       1 <1>        -0.2711 
     11 O11        31.7407    5.8050  -19.8598 O.2       1 <1>        -0.3778 
     12 C12        29.4546    6.3801  -19.6976 C.2       1 <1>         0.0557 
     13 H1         31.7498    9.5118  -21.3646 H         1 <1>         0.0366 
     14 C14        29.1357    5.9186  -18.4824 C.2       1 <1>         0.0789 
     15 O15        30.0758    5.3403  -17.7212 O.3       1 <1>        -0.2722 
     16 C16        29.6187    4.9273  -16.4201 C.3       1 <1>         0.2383 
     17 O17        30.7204    4.2794  -15.7530 O.3       1 <1>        -0.2305 
     18 C18        30.9845    5.0306  -14.6916 C.2       1 <1>         0.2495 
     19 O19        31.8811    4.7557  -13.9128 O.2       1 <1>        -0.3691 
     20 C20        30.1247    6.1952  -14.5181 C.2       1 <1>         0.0293 
     21 C21        29.2953    6.1269  -15.5572 C.2       1 <1>        -0.0010 
     22 C22        30.1612    7.2280  -13.4250 C.3       1 <1>        -0.0323 
     23 H2         30.9164    9.6644  -22.9409 H         1 <1>         0.0366 
     24 H3         29.6956   11.6629  -22.2171 H         1 <1>         0.0283 
     25 H4         31.4024   11.9204  -21.7590 H         1 <1>         0.0283 
     26 H5         29.9317   12.5607  -19.8427 H         1 <1>         0.0283 
     27 H6         30.8372   11.0805  -19.4207 H         1 <1>         0.0283 
     28 H7         27.8791   11.2796  -20.3031 H         1 <1>         0.0365 
     29 H8         28.5209   10.6884  -18.7399 H         1 <1>         0.0365 
     30 H9         26.8575    8.5213  -20.5958 H         1 <1>         0.0383 
     31 H10        27.6158    8.2480  -18.9876 H         1 <1>         0.0383 
     32 H11        27.8091    6.3000  -21.0541 H         1 <1>         0.0450 
     33 H12        29.1747    7.5041  -22.7680 H         1 <1>         0.0766 
     34 H13        28.0998    6.0281  -18.1572 H         1 <1>         0.1070 
     35 H14        28.7786    4.2143  -16.4749 H         1 <1>         0.1210 
     36 H15        28.4999    6.8453  -15.7507 H         1 <1>         0.0706 
     37 H16        30.9647    6.9991  -12.7088 H         1 <1>         0.0347 
     38 H17        29.1994    7.2383  -12.8909 H         1 <1>         0.0347 
     39 H18        30.3437    8.2218  -13.8602 H         1 <1>         0.0347 
     40 C41        30.7552    6.3220  -20.3570 C.2       1 <1>         0.2372 
@<TRIPOS>BOND
     1    2    1 1    
     2    2    3 1    
     3    3    4 1    
     4    4    5 1    
     5    6    5 2    
     6    1    6 1    
     7    5    7 1    
     8    7    8 1    
     9    9    8 1    
    10    6    9 1    
    11    9   10 1    
    12   40   11 2    
    13    1   13 1    
    14    8   12 1    
    15    1   23 1    
    16   12   14 2    
    17   14   15 1    
    18   15   16 1    
    19   16   17 1    
    20   17   18 1    
    21   18   19 2    
    22   20   18 1    
    23   21   20 2    
    24   16   21 1    
    25   20   22 1    
    26    2   24 1    
    27    2   25 1    
    28    3   26 1    
    29    3   27 1    
    30    4   28 1    
    31    4   29 1    
    32    7   30 1    
    33    7   31 1    
    34    8   32 1    
    35    9   33 1    
    36   14   34 1    
    37   16   35 1    
    38   21   36 1    
    39   22   37 1    
    40   22   38 1    
    41   22   39 1    
    42   12   40 1    
    43   10   40 1    
@<TRIPOS>SUBSTRUCTURE
     1 ****        2 TEMP              0 ****  ****    0 ROOT 
@<TRIPOS>NORMAL
@<TRIPOS>FF_PBC
FORCE_FIELD_SETUP_FEATURE Force Field Setup information
v1.0  0 0.000000 0.000000 0.000000 0.000000 0.000000 0.000000 NONE 0 0 0 0 1 0 0 0 0 0 0 0 0
@<TRIPOS>RENDERING_ATTRS
ANTIALIASED_LINES 
*
