#	Name:			PISM00258
#	Creating user name:	14062
#	Creation time:		Fri Apr 05 23:50:47 2019

#	Modifying user name:	14062
#	Modification time:	Fri Apr 05 23:53:05 2019

@<TRIPOS>MOLECULE
PISM00258
   17    16     1     2     0
SMALL
GAST_HUCK


@<TRIPOS>ATOM
      1 O1         -3.3059   -5.4744   -1.1206 O.3       1 <1>        -0.2913 
      2 C2         -3.2860   -4.4474   -1.9742 C.2       1 <1>         0.2868 
      3 C3         -3.5574   -4.7818   -3.4279 C.3       1 <1>         0.1736 
      4 O4         -3.2745   -3.6610   -4.2980 O.3       1 <1>        -0.2901 
      5 N5         -3.9136   -2.4462   -4.0652 N.3       1 <1>        -0.2156 
      6 O6         -3.0676   -3.3052   -1.5993 O.2       1 <1>        -0.3095 
      7 H1         -3.1226   -5.1896   -0.2322 H         1 <1>         0.2528 
      8 C8         -5.0342   -5.2316   -3.5817 C.3       1 <1>        -0.0264 
      9 C9         -2.5997   -5.9122   -3.8872 C.3       1 <1>        -0.0264 
     10 H4         -3.8370   -2.1479   -3.0266 H         1 <1>         0.1498 
     11 H5         -4.9469   -2.4778   -4.3776 H         1 <1>         0.1498 
     12 H2         -5.2688   -5.3899   -4.6451 H         1 <1>         0.0244 
     13 H3         -5.7150   -4.4671   -3.1792 H         1 <1>         0.0244 
     14 H6         -5.2118   -6.1711   -3.0362 H         1 <1>         0.0244 
     15 H7         -2.7713   -6.1412   -4.9501 H         1 <1>         0.0244 
     16 H8         -2.7530   -6.8307   -3.3003 H         1 <1>         0.0244 
     17 H9         -1.5557   -5.5852   -3.7645 H         1 <1>         0.0244 
@<TRIPOS>BOND
     1    2    1 1    
     2    2    3 1    
     3    3    4 1    
     4    4    5 1    
     5    2    6 2    
     6    1    7 1    
     7    3    8 1    
     8    3    9 1    
     9    5   10 1    
    10    5   11 1    
    11    8   12 1    
    12    8   13 1    
    13    8   14 1    
    14    9   15 1    
    15    9   16 1    
    16    9   17 1    
@<TRIPOS>SUBSTRUCTURE
     1 ****        2 TEMP              0 ****  ****    0 ROOT 
@<TRIPOS>NORMAL
@<TRIPOS>FF_PBC
FORCE_FIELD_SETUP_FEATURE Force Field Setup information
v1.0  0 0.000000 0.000000 0.000000 0.000000 0.000000 0.000000 NONE 0 0 0 0 1 0 0 0 0 0 0 0 0
@<TRIPOS>RENDERING_ATTRS
ANTIALIASED_LINES 
*
