#	Name:			PISM01154
#	Creating user name:	baoopengkun
#	Creation time:		Tue Dec 18 15:52:04 2018

#	Modifying user name:	baoopengkun
#	Modification time:	Tue Dec 18 15:53:19 2018

@<TRIPOS>MOLECULE
PISM01154
   17    17     1     1     0
SMALL
GAST_HUCK


@<TRIPOS>ATOM
      1 Cl1         3.0343    6.4184    6.1635 Cl        1 <1>        -0.0815 
      2 C2          2.3082    7.5791    5.0711 C.ar      1 <1>         0.0328 
      3 C3          2.8123    7.7375    3.7791 C.ar      1 <1>        -0.0409 
      4 C4          2.1985    8.6213    2.8872 C.ar      1 <1>         0.0635 
      5 C5          1.0744    9.3618    3.2837 C.ar      1 <1>         0.0732 
      6 C6          0.6508    9.2880    4.6191 C.ar      1 <1>         0.0801 
      7 C7          1.2244    8.3538    5.4881 C.ar      1 <1>        -0.0378 
      8 C8         -0.4244   10.2084    5.1602 C.2       1 <1>         0.2522 
      9 O9         -1.2365    9.7655    5.9536 O.2       1 <1>        -0.3650 
     10 O10        -0.5236   11.4958    4.8200 O.3       1 <1>        -0.2956 
     11 N11         0.3929   10.1237    2.3896 N.pl3     1 <1>        -0.3312 
     12 Cl12        2.8630    8.7656    1.2699 Cl        1 <1>        -0.0801 
     13 H1          3.6812    7.1681    3.4665 H         1 <1>         0.0633 
     14 H2          0.8353    8.2319    6.4939 H         1 <1>         0.0646 
     15 H3          0.2095   11.8078    4.3045 H         1 <1>         0.2519 
     16 H4          0.8412   10.4505    1.5210 H         1 <1>         0.1753 
     17 H5         -0.6055   10.3404    2.5386 H         1 <1>         0.1753 
@<TRIPOS>BOND
     1    1    2 1    
     2    2    3 ar   
     3    3    4 ar   
     4    4    5 ar   
     5    5    6 ar   
     6    6    7 ar   
     7    2    7 ar   
     8    6    8 1    
     9    8    9 2    
    10    8   10 1    
    11    5   11 1    
    12    4   12 1    
    13    3   13 1    
    14    7   14 1    
    15   10   15 1    
    16   11   16 1    
    17   11   17 1    
@<TRIPOS>SUBSTRUCTURE
     1 ****        1 TEMP              0 ****  ****    0 ROOT 
@<TRIPOS>NORMAL
@<TRIPOS>FF_PBC
FORCE_FIELD_SETUP_FEATURE Force Field Setup information
v1.0  0 0.000000 0.000000 0.000000 0.000000 0.000000 0.000000 NONE 0 0 0 0 1 0 0 0 0 0 0 0 0
