#	Name:			PISM00140
#	Creating user name:	14062
#	Creation time:		Sat Oct 19 21:17:45 2019

#	Modifying user name:	14062
#	Modification time:	Sat Oct 19 21:20:36 2019

@<TRIPOS>MOLECULE
PISM00140
   55    59     1     1     0
SMALL
GAST_HUCK


@<TRIPOS>ATOM
      1 O          -0.6305   -2.1943   -0.3121 O.3       1 <1>        -0.2628 
      2 O           3.2947   -1.1328    0.9746 O.3       1 <1>        -0.2897 
      3 O           2.4263    3.1086   -0.4125 O.2       1 <1>        -0.1700 
      4 O          -5.5206   -0.1395   -0.2065 O.2       1 <1>        -0.3318 
      5 O          -0.6594    3.5131   -0.8070 O.2       1 <1>        -0.2601 
      6 O           2.3914   -2.7467   -1.3994 O.3       1 <1>        -0.3817 
      7 O           5.1646    0.1038    0.9547 O.2       1 <1>        -0.3570 
      8 O          -1.8159   -3.7451    0.8200 O.2       1 <1>        -0.3705 
      9 C          -3.2358    0.3569    0.3253 C.3       1 <1>         0.0592 
     10 C          -2.3974    1.2025   -0.6613 C.3       1 <1>         0.0435 
     11 C          -0.4174    0.0941    0.3220 C.2       1 <1>        -0.0416 
     12 C          -2.7588   -1.1036    0.1829 C.3       1 <1>         0.0001 
     13 C           1.0339    0.0228    0.8337 C.3       1 <1>        -0.0162 
     14 C          -0.9484    1.2130   -0.2299 C.2       1 <1>         0.0806 
     15 C          -1.2383   -1.1849    0.5150 C.3       1 <1>         0.1083 
     16 C          -3.2227    2.5100   -0.8114 C.3       1 <1>        -0.0146 
     17 C          -4.5989    0.6580   -0.2258 C.2       1 <1>         0.1372 
     18 C          -4.6969    2.0170   -0.8579 C.3       1 <1>         0.0269 
     19 C          -3.1877    0.8339    1.8080 C.3       1 <1>        -0.0506 
     20 C           1.8327    1.1949    0.3188 C.ar      1 <1>         0.0561 
     21 C           1.9412   -1.1886    0.4260 C.3       1 <1>         0.0666 
     22 C          -0.1657    2.4589   -0.4449 C.2       1 <1>         0.3554 
     23 C           1.3176    2.3569   -0.2183 C.ar      1 <1>         0.4489 
     24 C           1.0192    0.1893    2.3799 C.3       1 <1>        -0.1084 
     25 C           3.2192    1.2466    0.3284 C.ar      1 <1>         0.1658 
     26 C           2.0348   -1.3773   -1.1196 C.3       1 <1>         0.0626 
     27 C           3.9637    0.0179    0.7719 C.2       1 <1>         0.2712 
     28 C           3.6363    2.5059   -0.1054 C.ar      1 <1>         0.3608 
     29 C          -1.0145   -3.4505   -0.0515 C.2       1 <1>         0.2328 
     30 C          -0.3547   -4.4999   -0.8992 C.3       1 <1>         0.0374 
     31 C           2.5355   -3.0339   -2.8040 C.3       1 <1>         0.0365 
     32 H          -2.4008    0.7349   -1.6628 H         1 <1>         0.0626 
     33 H          -2.9242   -1.4366   -0.8546 H         1 <1>         0.0307 
     34 H          -3.3634   -1.7587    0.8310 H         1 <1>         0.0307 
     35 H          -1.1508   -1.4547    1.5800 H         1 <1>         0.0790 
     36 H          -2.9661    3.0827   -1.7184 H         1 <1>         0.0335 
     37 H          -3.0646    3.1614    0.0624 H         1 <1>         0.0335 
     38 H          -5.0458    1.8868   -1.8948 H         1 <1>         0.0490 
     39 H          -5.3922    2.6765   -0.3151 H         1 <1>         0.0490 
     40 H          -3.5930    1.8478    1.9342 H         1 <1>         0.0223 
     41 H          -3.8044    0.1578    2.4198 H         1 <1>         0.0223 
     42 H          -2.1675    0.8245    2.2150 H         1 <1>         0.0223 
     43 H           1.5032   -2.1031    0.8549 H         1 <1>         0.0473 
     44 H           0.4189    1.0689    2.6600 H         1 <1>         0.0038 
     45 H           0.6006   -0.6945    2.8808 H         1 <1>         0.0038 
     46 H           2.0352    0.3345    2.7782 H         1 <1>         0.0038 
     47 H           2.7975   -0.7039   -1.5388 H         1 <1>         0.0572 
     48 H           1.0780   -1.1419   -1.6082 H         1 <1>         0.0572 
     49 H           4.6469    2.8983   -0.1816 H         1 <1>         0.1955 
     50 H           0.6724   -4.6590   -0.5403 H         1 <1>         0.0483 
     51 H          -0.3249   -4.1714   -1.9481 H         1 <1>         0.0483 
     52 H          -0.9098   -5.4474   -0.8359 H         1 <1>         0.0483 
     53 H           1.5990   -2.8499   -3.3529 H         1 <1>         0.0523 
     54 H           2.7922   -4.0990   -2.9030 H         1 <1>         0.0523 
     55 H           3.3459   -2.4389   -3.2528 H         1 <1>         0.0523 
@<TRIPOS>BOND
     1   15    1 1    
     2    1   29 1    
     3   21    2 1    
     4    2   27 1    
     5   23    3 ar   
     6    3   28 ar   
     7   17    4 2    
     8   22    5 2    
     9   26    6 1    
    10    6   31 1    
    11   27    7 2    
    12   29    8 2    
    13   10    9 1    
    14   12    9 1    
    15    9   17 1    
    16    9   19 1    
    17   14   10 1    
    18   10   16 1    
    19   10   32 1    
    20   13   11 1    
    21   11   14 2    
    22   11   15 1    
    23   15   12 1    
    24   12   33 1    
    25   12   34 1    
    26   13   20 1    
    27   21   13 1    
    28   13   24 1    
    29   14   22 1    
    30   15   35 1    
    31   16   18 1    
    32   16   36 1    
    33   16   37 1    
    34   17   18 1    
    35   18   38 1    
    36   18   39 1    
    37   19   40 1    
    38   19   41 1    
    39   19   42 1    
    40   20   23 ar   
    41   20   25 ar   
    42   21   26 1    
    43   21   43 1    
    44   22   23 1    
    45   24   44 1    
    46   24   45 1    
    47   24   46 1    
    48   25   27 1    
    49   25   28 ar   
    50   26   47 1    
    51   26   48 1    
    52   28   49 1    
    53   29   30 1    
    54   30   50 1    
    55   30   51 1    
    56   30   52 1    
    57   31   53 1    
    58   31   54 1    
    59   31   55 1    
@<TRIPOS>SUBSTRUCTURE
     1 ****       11 TEMP              0 ****  ****    0 ROOT 
@<TRIPOS>NORMAL
@<TRIPOS>FF_PBC
FORCE_FIELD_SETUP_FEATURE Force Field Setup information
v1.0  0 0.000000 0.000000 0.000000 0.000000 0.000000 0.000000 NONE 0 0 0 0 1 0 0 0 0 0 0 0 0
