#	Name:			PISM00758
#	Creating user name:	baoopengkun
#	Creation time:		Sun Dec 02 11:38:55 2018

#	Modifying user name:	baoopengkun
#	Modification time:	Sun Dec 02 11:41:17 2018

@<TRIPOS>MOLECULE
PISM00758
   27    28     1     2     0
SMALL
GAST_HUCK


@<TRIPOS>ATOM
      1 C1          3.7430    5.2745   -4.3720 C.2       1 <1>         0.1055 
      2 C2          4.5330    5.6660   -5.5817 C.3       1 <1>         0.0168 
      3 C3          4.2811    4.4318   -6.4932 C.3       1 <1>        -0.0339 
      4 C4          2.8627    3.8943   -6.1491 C.3       1 <1>        -0.0251 
      5 C5          2.7734    4.2269   -4.6872 C.2       1 <1>         0.0183 
      6 O6          3.8885    5.7649   -3.2649 O.2       1 <1>        -0.4001 
      7 C7          1.9396    3.6475   -3.8177 C.2       1 <1>         0.0764 
      8 O8          1.0955    2.6976   -4.2454 O.3       1 <1>        -0.2718 
      9 C9          0.2521    2.1772   -3.2048 C.3       1 <1>         0.2384 
     10 O10         1.0532    1.5877   -2.1599 O.3       1 <1>        -0.2305 
     11 C11         0.7560    0.2943   -2.1781 C.2       1 <1>         0.2495 
     12 C12        -0.2399   -0.1073   -3.1654 C.2       1 <1>         0.0293 
     13 C13        -0.5462    1.0334   -3.7800 C.2       1 <1>        -0.0010 
     14 C14        -0.7938   -1.4813   -3.4273 C.3       1 <1>        -0.0323 
     15 O15         1.2800   -0.4976   -1.4139 O.2       1 <1>        -0.3691 
     16 H1          5.6009    5.8175   -5.3582 H         1 <1>         0.0476 
     17 H2          4.1034    6.5876   -6.0037 H         1 <1>         0.0476 
     18 H3          5.0163    3.6517   -6.2290 H         1 <1>         0.0302 
     19 H4          4.3965    4.6678   -7.5635 H         1 <1>         0.0302 
     20 H5          2.7552    2.8184   -6.3625 H         1 <1>         0.0354 
     21 H6          2.0853    4.4585   -6.6880 H         1 <1>         0.0354 
     22 H7          1.9913    3.9866   -2.7798 H         1 <1>         0.1073 
     23 H8         -0.4228    2.9459   -2.7915 H         1 <1>         0.1210 
     24 H9         -1.2678    1.1314   -4.5900 H         1 <1>         0.0706 
     25 H10        -0.3686   -2.2073   -2.7181 H         1 <1>         0.0347 
     26 H11        -0.5417   -1.7928   -4.4518 H         1 <1>         0.0347 
     27 H12        -1.8879   -1.4694   -3.3122 H         1 <1>         0.0347 
@<TRIPOS>BOND
     1    2    1 1    
     2    2    3 1    
     3    3    4 1    
     4    4    5 1    
     5    1    5 1    
     6    1    6 2    
     7    5    7 2    
     8    7    8 1    
     9    8    9 1    
    10    9   10 1    
    11   10   11 1    
    12   11   12 1    
    13   12   13 2    
    14    9   13 1    
    15   12   14 1    
    16   11   15 2    
    17    2   16 1    
    18    2   17 1    
    19    3   18 1    
    20    3   19 1    
    21    4   20 1    
    22    4   21 1    
    23    7   22 1    
    24    9   23 1    
    25   13   24 1    
    26   14   25 1    
    27   14   26 1    
    28   14   27 1    
@<TRIPOS>SUBSTRUCTURE
     1 ****        2 TEMP              0 ****  ****    0 ROOT 
@<TRIPOS>NORMAL
@<TRIPOS>FF_PBC
FORCE_FIELD_SETUP_FEATURE Force Field Setup information
v1.0  0 0.000000 0.000000 0.000000 0.000000 0.000000 0.000000 NONE 0 0 0 0 1 0 0 0 0 0 0 0 0
@<TRIPOS>RENDERING_ATTRS
ANTIALIASED_LINES 
*
