#	Name:			PISM01028
#	Creating user name:	14062
#	Creation time:		Sat Oct 19 23:50:29 2019

#	Modifying user name:	14062
#	Modification time:	Sun Oct 20 00:09:09 2019

@<TRIPOS>MOLECULE
PISM01028
   30    32     3     1     0
SMALL
GAST_HUCK


@<TRIPOS>ATOM
      1 C1          2.3051    0.1834   -4.2372 C.2       1 BENZYL     -0.0765 
      2 N2          3.3541    0.6439   -3.6006 N.pl3     1 BENZYL     -0.3424 
      3 C2          4.5711    0.7361   -4.2079 C.ar      1 BENZYL      0.0606 
      4 C3          4.7348    0.2628   -5.5141 C.ar      1 BENZYL      0.0587 
      5 C4          5.9825    0.2752   -6.1460 C.ar      1 BENZYL     -0.0670 
      6 C5          7.0921    0.7981   -5.4783 C.ar      1 BENZYL     -0.0851 
      7 C6          6.9371    1.3205   -4.1921 C.ar      1 BENZYL     -0.0839 
      8 C7          5.6841    1.3057   -3.5707 C.ar      1 BENZYL     -0.0486 
      9 N9          2.3513   -0.2502   -5.5153 N.am      1 BENZYL     -0.3568 
     10 C10         3.5000   -0.2550   -6.2089 C.2       1 BENZYL      0.1741 
     11 O11         3.5591   -0.6589   -7.3602 O.2       1 BENZYL     -0.4111 
     12 N           1.5109    3.6347   -0.3522 N.pl3     3 NO          0.0591 
     13 O           0.9715    4.2877   -1.2192 O.2       3 NO         -0.1247 
     14 C2          3.1997    1.0204   -2.3074 C.ar      2 BENZYL      0.0196 
     15 C3          2.4263    2.1413   -1.9911 C.ar      2 BENZYL     -0.0372 
     16 C4          2.2619    2.5460   -0.6598 C.ar      2 BENZYL      0.0914 
     17 C5          2.8878    1.8077    0.3533 C.ar      2 BENZYL     -0.0670 
     18 C6          3.6578    0.6827    0.0438 C.ar      2 BENZYL     -0.0989 
     19 C7          3.8094    0.2856   -1.2869 C.ar      2 BENZYL     -0.0697 
     20 O20         1.3395    4.0346    0.9804 O.3       3 NO         -0.0282 
     21 H1          1.3354    0.1284   -3.7357 H         1 BENZYL     -0.0766 
     22 H2          6.0889   -0.1188   -7.1514 H         1 BENZYL      0.0518 
     23 H3          8.0668    0.8002   -5.9564 H         1 BENZYL      0.0423 
     24 H4          7.7937    1.7409   -3.6739 H         1 BENZYL      0.0575 
     25 H5          5.5992    1.7517   -2.5863 H         1 BENZYL      0.0410 
     26 H6          1.5257   -0.5902   -5.9650 H         1 BENZYL      0.1733 
     27 H7          1.9577    2.6923   -2.7993 H         2 BENZYL      0.0305 
     28 H8          2.7837    2.0984    1.3932 H         2 BENZYL      0.0288 
     29 H9          4.1381    0.1163    0.8358 H         2 BENZYL      0.0498 
     30 H10         4.3985   -0.5921   -1.5324 H         2 BENZYL      0.0348 
@<TRIPOS>BOND
     1    2    3 1    
     2    3    4 ar   
     3    3    8 ar   
     4    8    7 ar   
     5    7    6 ar   
     6    6    5 ar   
     7    5    4 ar   
     8    2    1 1    
     9    1    9 1    
    10    9   10 am   
    11    4   10 1    
    12   10   11 2    
    13   12   13 2    
    14   14    2 1    
    15   14   15 ar   
    16   14   19 ar   
    17   19   18 ar   
    18   18   17 ar   
    19   17   16 ar   
    20   16   15 ar   
    21   16   12 1    
    22   12   20 1    
    23    1   21 1    
    24    5   22 1    
    25    6   23 1    
    26    7   24 1    
    27    8   25 1    
    28    9   26 1    
    29   15   27 1    
    30   17   28 1    
    31   18   29 1    
    32   19   30 1    
@<TRIPOS>SUBSTRUCTURE
     1 BENZYL      2 PERM              0 ****  ****    1  
     2 BENZYL     14 PERM              0 ****  ****    2 ROOT 
     3 NO         12 PERM              0 ****  ****    1  
@<TRIPOS>NORMAL
@<TRIPOS>FF_PBC
FORCE_FIELD_SETUP_FEATURE Force Field Setup information
v1.0  0 0.000000 0.000000 0.000000 0.000000 0.000000 0.000000 NONE 0 0 0 0 1 0 0 0 0 0 0 0 0
