#	Name:			PISM00696
#	Creating user name:	baoopengkun
#	Creation time:		Sun Jan 20 21:12:11 2019

#	Modifying user name:	baoopengkun
#	Modification time:	Sun Jan 20 21:15:15 2019

@<TRIPOS>MOLECULE
PISM00696
   41    42     1     1     0
SMALL
GAST_HUCK


@<TRIPOS>ATOM
      1 C1         -2.4637    3.4166    6.7639 C.3       1 <1>        -0.0289 
      2 C2         -1.0960    2.8493    6.3646 C.ar      1 <1>        -0.0414 
      3 C3          0.0856    3.5378    6.6623 C.ar      1 <1>        -0.0547 
      4 C4          1.3244    3.0032    6.2970 C.ar      1 <1>        -0.0485 
      5 C5          1.3921    1.7937    5.5983 C.ar      1 <1>         0.0431 
      6 C6          0.2145    1.0951    5.3176 C.ar      1 <1>        -0.0485 
      7 C7         -1.0238    1.6236    5.6936 C.ar      1 <1>        -0.0547 
      8 C8          2.7221    1.2229    5.1551 C.2       1 <1>         0.2044 
      9 O9          2.9757    0.1024    5.5664 O.2       1 <1>        -0.3875 
     10 N10         3.5927    1.8888    4.3459 N.am      1 <1>        -0.2596 
     11 C11         3.1951    3.1316    3.6604 C.3       1 <1>         0.0409 
     12 C12         4.0908    4.3387    4.0502 C.3       1 <1>        -0.0419 
     13 C13         3.2104    2.9007    2.1244 C.3       1 <1>        -0.0419 
     14 H1         -2.9653    3.8027    5.8641 H         1 <1>         0.0401 
     15 H2         -2.3687    4.2324    7.4963 H         1 <1>         0.0401 
     16 C16         4.8824    1.2351    4.0983 C.3       1 <1>         0.0671 
     17 C17         5.6380    0.9011    5.3940 C.ar      1 <1>        -0.0208 
     18 C18         5.5183    1.7229    6.5206 C.ar      1 <1>        -0.0584 
     19 C19         6.2039    1.4154    7.6994 C.ar      1 <1>        -0.0685 
     20 C20         7.0172    0.2807    7.7597 C.ar      1 <1>        -0.0687 
     21 C21         7.1428   -0.5437    6.6384 C.ar      1 <1>        -0.0685 
     22 C22         6.4566   -0.2326    5.4608 C.ar      1 <1>        -0.0584 
     23 H3         -3.0831    2.6229    7.2083 H         1 <1>         0.0401 
     24 H4          0.0488    4.4910    7.1800 H         1 <1>         0.0570 
     25 H5          2.2367    3.5263    6.5615 H         1 <1>         0.0652 
     26 H6          0.2641    0.1400    4.8038 H         1 <1>         0.0652 
     27 H7         -1.9326    1.0774    5.4611 H         1 <1>         0.0570 
     28 H8          2.1566    3.4239    3.8848 H         1 <1>         0.0554 
     29 H9          5.1421    4.1690    3.7790 H         1 <1>         0.0252 
     30 H10         4.0367    4.5190    5.1332 H         1 <1>         0.0252 
     31 H11         3.7479    5.2490    3.5337 H         1 <1>         0.0252 
     32 H12         2.5919    2.0229    1.8801 H         1 <1>         0.0252 
     33 H13         4.2282    2.7248    1.7482 H         1 <1>         0.0252 
     34 H14         2.8001    3.7756    1.5953 H         1 <1>         0.0252 
     35 H15         5.5712    1.8576    3.5121 H         1 <1>         0.0685 
     36 H16         4.6926    0.3151    3.5230 H         1 <1>         0.0685 
     37 H17         4.8908    2.6054    6.4874 H         1 <1>         0.0557 
     38 H18         6.1043    2.0580    8.5689 H         1 <1>         0.0599 
     39 H19         7.5494    0.0399    8.6749 H         1 <1>         0.0559 
     40 H20         7.7736   -1.4263    6.6823 H         1 <1>         0.0599 
     41 H21         6.5648   -0.8796    4.5962 H         1 <1>         0.0557 
@<TRIPOS>BOND
     1    2    1 1    
     2    2    3 ar   
     3    3    4 ar   
     4    4    5 ar   
     5    6    5 ar   
     6    7    6 ar   
     7    2    7 ar   
     8    5    8 1    
     9    8    9 2    
    10    8   10 am   
    11   10   11 1    
    12   11   12 1    
    13   11   13 1    
    14    1   14 1    
    15    1   15 1    
    16    1   23 1    
    17   10   16 1    
    18   16   17 1    
    19   17   18 ar   
    20   18   19 ar   
    21   19   20 ar   
    22   21   20 ar   
    23   22   21 ar   
    24   17   22 ar   
    25    3   24 1    
    26    4   25 1    
    27    6   26 1    
    28    7   27 1    
    29   11   28 1    
    30   12   29 1    
    31   12   30 1    
    32   12   31 1    
    33   13   32 1    
    34   13   33 1    
    35   13   34 1    
    36   16   35 1    
    37   16   36 1    
    38   18   37 1    
    39   19   38 1    
    40   20   39 1    
    41   21   40 1    
    42   22   41 1    
@<TRIPOS>SUBSTRUCTURE
     1 ****        2 TEMP              0 ****  ****    0 ROOT 
@<TRIPOS>NORMAL
@<TRIPOS>FF_PBC
FORCE_FIELD_SETUP_FEATURE Force Field Setup information
v1.0  0 0.000000 0.000000 0.000000 0.000000 0.000000 0.000000 NONE 0 0 0 0 1 0 0 0 0 0 0 0 0
