#	Name:			PISM00531
#	Creating user name:	malab
#	Creation time:		Thu Apr 04 21:17:33 2019

#	Modifying user name:	malab
#	Modification time:	Thu Apr 04 21:18:22 2019

@<TRIPOS>MOLECULE
PISM00531
   22    23     1     1     0
SMALL
GAST_HUCK


@<TRIPOS>ATOM
      1 O1         21.7489    4.2611   -3.0750 O.2       1 <1>        -0.3951 
      2 C2         22.6415    4.9972   -2.6914 C.2       1 <1>         0.1985 
      3 N3         22.4582    6.1860   -2.1031 N.am      1 <1>        -0.1864 
      4 N4         24.0596    6.7871   -1.9143 N.pl3     1 <1>        -0.2065 
      5 C5         24.9842    5.9440   -2.6413 C.3       1 <1>         0.0680 
      6 C6         24.1143    4.6561   -2.8154 C.3       1 <1>         0.0608 
      7 C7         24.4015    7.8131   -1.0967 C.ar      1 <1>         0.0645 
      8 C8         23.5380    8.1980   -0.0653 C.ar      1 <1>        -0.0423 
      9 C9         23.8705    9.2597    0.7813 C.ar      1 <1>        -0.0736 
     10 C10        25.0814    9.9358    0.6111 C.ar      1 <1>        -0.0751 
     11 C11        25.9530    9.5516   -0.4113 C.ar      1 <1>        -0.0736 
     12 C12        25.6098    8.5002   -1.2668 C.ar      1 <1>        -0.0423 
     13 H1         21.5859    6.6331   -1.9085 H         1 <1>         0.2159 
     14 H2         25.9272    5.7431   -2.1069 H         1 <1>         0.0562 
     15 H3         25.1903    6.4165   -3.6149 H         1 <1>         0.0562 
     16 H4         24.3288    3.9540   -1.9950 H         1 <1>         0.0523 
     17 H5         24.3231    4.1532   -3.7722 H         1 <1>         0.0523 
     18 H6         22.6042    7.6700    0.0894 H         1 <1>         0.0516 
     19 H7         23.1891    9.5581    1.5723 H         1 <1>         0.0583 
     20 H8         25.3440   10.7570    1.2711 H         1 <1>         0.0505 
     21 H9         26.8969   10.0722   -0.5419 H         1 <1>         0.0583 
     22 H10        26.2906    8.2307   -2.0665 H         1 <1>         0.0516 
@<TRIPOS>BOND
     1    2    1 2    
     2    2    3 am   
     3    3    4 1    
     4    4    5 1    
     5    5    6 1    
     6    2    6 1    
     7    4    7 1    
     8    7    8 ar   
     9    8    9 ar   
    10    9   10 ar   
    11   10   11 ar   
    12   11   12 ar   
    13    7   12 ar   
    14    3   13 1    
    15    5   14 1    
    16    5   15 1    
    17    6   16 1    
    18    6   17 1    
    19    8   18 1    
    20    9   19 1    
    21   10   20 1    
    22   11   21 1    
    23   12   22 1    
@<TRIPOS>SUBSTRUCTURE
     1 ****        2 TEMP              0 ****  ****    0 ROOT 
@<TRIPOS>NORMAL
@<TRIPOS>FF_PBC
FORCE_FIELD_SETUP_FEATURE Force Field Setup information
v1.0  0 0.000000 0.000000 0.000000 0.000000 0.000000 0.000000 NONE 0 0 0 0 1 0 0 0 0 0 0 0 0
