#	Name:			PISM01013
#	Creating user name:	malab
#	Creation time:		Mon Jul 01 22:13:03 2019

#	Modifying user name:	malab
#	Modification time:	Mon Jul 01 22:14:14 2019

@<TRIPOS>MOLECULE
PISM01013
   26    28     1     1     0
SMALL
GAST_HUCK


@<TRIPOS>ATOM
      1 C1         14.5500   14.1778   31.4249 C.ar      1 <1>        -0.0792 
      2 C2         13.3784   14.1965   30.6576 C.ar      1 <1>        -0.0460 
      3 C3         12.9284   15.4169   30.1323 C.ar      1 <1>         0.0696 
      4 C4         13.6592   16.5701   30.3897 C.ar      1 <1>        -0.0178 
      5 C5         14.8274   16.5687   31.1526 C.ar      1 <1>        -0.0702 
      6 C6         15.2720   15.3508   31.6737 C.ar      1 <1>        -0.0807 
      7 N7         11.8381   15.6904   29.3701 N.pl3     1 <1>        -0.1966 
      8 C8         11.7589   17.1211   29.0520 C.3       1 <1>         0.0582 
      9 C9         13.0020   17.7709   29.7321 C.3       1 <1>         0.0014 
     10 C10        10.9472   14.8173   28.9506 C.2       1 <1>         0.3772 
     11 O11        11.0452   13.6347   29.2315 O.2       1 <1>        -0.3447 
     12 N12         9.9173   15.1649   28.2167 N.pl3     1 <1>        -0.0656 
     13 N13         9.5548   16.3844   27.7582 N.2       1 <1>        -0.0732 
     14 N14         8.4262   16.3399   27.0320 N.2       1 <1>        -0.2234 
     15 C15         8.0854   14.9413   27.0657 C.2       1 <1>         0.0268 
     16 C16         9.0189   14.3155   27.7874 C.2       1 <1>         0.0976 
     17 H1         14.9066   13.2374   31.8353 H         1 <1>         0.0528 
     18 H2         12.8682   13.2561   30.5042 H         1 <1>         0.0508 
     19 H3         15.3725   17.4892   31.3339 H         1 <1>         0.0522 
     20 H4         16.1778   15.3156   32.2715 H         1 <1>         0.0497 
     21 H5         10.8379   17.5654   29.4651 H         1 <1>         0.0576 
     22 H6         11.8066   17.2873   27.9627 H         1 <1>         0.0576 
     23 H7         12.7314   18.5130   30.5003 H         1 <1>         0.0424 
     24 H8         13.6992   18.2222   29.0079 H         1 <1>         0.0424 
     25 H9          7.2192   14.4879   26.5850 H         1 <1>         0.0560 
     26 H10         8.9927   13.2396   27.9670 H         1 <1>         0.1050 
@<TRIPOS>BOND
     1    2    1 ar   
     2    2    3 ar   
     3    3    4 ar   
     4    4    5 ar   
     5    5    6 ar   
     6    1    6 ar   
     7    3    7 1    
     8    7    8 1    
     9    8    9 1    
    10    4    9 1    
    11    7   10 1    
    12   10   11 2    
    13   10   12 1    
    14   12   13 1    
    15   13   14 2    
    16   14   15 1    
    17   15   16 2    
    18   12   16 1    
    19    1   17 1    
    20    2   18 1    
    21    5   19 1    
    22    6   20 1    
    23    8   21 1    
    24    8   22 1    
    25    9   23 1    
    26    9   24 1    
    27   15   25 1    
    28   16   26 1    
@<TRIPOS>SUBSTRUCTURE
     1 ****        2 TEMP              0 ****  ****    0 ROOT 
@<TRIPOS>NORMAL
@<TRIPOS>FF_PBC
FORCE_FIELD_SETUP_FEATURE Force Field Setup information
v1.0  0 0.000000 0.000000 0.000000 0.000000 0.000000 0.000000 NONE 0 0 0 0 1 0 0 0 0 0 0 0 0
