#	Name:			PISM00362
#	Creating user name:	malab
#	Creation time:		Wed Apr 10 00:29:15 2019

#	Modifying user name:	malab
#	Modification time:	Wed Apr 10 00:36:22 2019

@<TRIPOS>MOLECULE
PISM00362
   55    56     1     1     0
SMALL
USER_CHARGES


@<TRIPOS>ATOM
      1 C1         -7.0708    3.7666   -0.6384 C.2       1 <1>         0.0000 
      2 C2         -7.5624    4.0184   -1.8694 C.2       1 <1>         0.0000 
      3 N3         -8.9653    3.8453   -1.6556 N.2       1 <1>         0.0000 
      4 C4         -9.1758    3.5272   -0.4653 C.2       1 <1>         0.0000 
      5 N5         -8.0528    3.4385    0.2014 N.pl3     1 <1>         0.0000 
      6 C6         -8.0117    3.0713    1.4767 C.2       1 <1>         0.0000 
      7 C7         -8.9954    3.6400    2.2165 C.2       1 <1>         0.0000 
      8 C8         -9.4314    3.5964    3.6638 C.ar      1 <1>         0.0000 
      9 C9         -6.9223    2.0506    1.8970 C.3       1 <1>         0.0000 
     10 C10        -5.5853    4.0040   -0.4696 C.3       1 <1>         0.0000 
     11 O11        -4.8626    3.2630   -1.4728 O.3       1 <1>         0.0000 
     12 C12        -7.0936    1.0923    3.1500 C.3       1 <1>         0.0000 
     13 C13        -6.5170    1.7794    4.4310 C.3       1 <1>         0.0000 
     14 C14        -8.5762    0.6327    3.3504 C.3       1 <1>         0.0000 
     15 C15        -6.2522   -0.2213    3.0506 C.3       1 <1>         0.0000 
     16 O16        -6.9197    1.2517    0.6787 O.3       1 <1>         0.0000 
     17 C17       -10.5813    2.8839    4.0213 C.ar      1 <1>         0.0000 
     18 C18       -10.9764    2.8088    5.3600 C.ar      1 <1>         0.0000 
     19 C19       -10.2390    3.4731    6.3436 C.ar      1 <1>         0.0000 
     20 C20        -9.1322    4.2451    5.9808 C.ar      1 <1>         0.0000 
     21 C21        -8.7511    4.3324    4.6387 C.ar      1 <1>         0.0000 
     22 Cl22      -10.7034    3.3407    8.0275 Cl        1 <1>         0.0000 
     23 C23        -3.4522    3.5571   -1.5060 C.3       1 <1>         0.0000 
     24 C24        -5.6562    0.7622    0.1579 C.3       1 <1>         0.0000 
     25 C25        -2.7981    2.6850   -2.6041 C.3       1 <1>         0.0000 
     26 C26        -5.9211    0.3703   -1.3177 C.3       1 <1>         0.0000 
     27 H1         -7.0510    4.3058   -2.7877 H         1 <1>         0.0000 
     28 H2        -10.1991    3.3296   -0.1437 H         1 <1>         0.0000 
     29 H3         -9.6867    4.3631    1.7852 H         1 <1>         0.0000 
     30 H4         -5.9761    2.5733    2.0572 H         1 <1>         0.0000 
     31 H5         -5.1819    3.8650    0.5343 H         1 <1>         0.0000 
     32 H6         -5.4539    5.0765   -0.6866 H         1 <1>         0.0000 
     33 H7         -6.7541    1.2064    5.3413 H         1 <1>         0.0000 
     34 H8         -6.9100    2.7848    4.5518 H         1 <1>         0.0000 
     35 H9         -5.4217    1.8826    4.3739 H         1 <1>         0.0000 
     36 H10        -9.2167    0.9575    2.5191 H         1 <1>         0.0000 
     37 H11        -8.9692    1.0177    4.2991 H         1 <1>         0.0000 
     38 H12        -8.6940   -0.4601    3.4124 H         1 <1>         0.0000 
     39 H13        -6.3244   -0.8009    3.9847 H         1 <1>         0.0000 
     40 H14        -5.1848   -0.0047    2.8939 H         1 <1>         0.0000 
     41 H15        -6.6299   -0.8756    2.2508 H         1 <1>         0.0000 
     42 H16       -11.1717    2.3873    3.2577 H         1 <1>         0.0000 
     43 H17       -11.8549    2.2347    5.6358 H         1 <1>         0.0000 
     44 H18        -8.5700    4.7775    6.7407 H         1 <1>         0.0000 
     45 H19        -7.9261    4.9773    4.3511 H         1 <1>         0.0000 
     46 H20        -2.9820    3.3303   -0.5347 H         1 <1>         0.0000 
     47 H21        -3.2852    4.6204   -1.7458 H         1 <1>         0.0000 
     48 H22        -5.2639   -0.1463    0.6262 H         1 <1>         0.0000 
     49 H23        -4.8561    1.5096    0.2047 H         1 <1>         0.0000 
     50 H24        -2.9330    1.6183   -2.3681 H         1 <1>         0.0000 
     51 H25        -1.7197    2.8993   -2.6744 H         1 <1>         0.0000 
     52 H26        -3.2664    2.8939   -3.5786 H         1 <1>         0.0000 
     53 H27        -6.3269    1.2247   -1.8797 H         1 <1>         0.0000 
     54 H28        -6.6581   -0.4474   -1.3589 H         1 <1>         0.0000 
     55 H29        -4.9935    0.0337   -1.8071 H         1 <1>         0.0000 
@<TRIPOS>BOND
     1    2    1 2    
     2    2    3 1    
     3    3    4 2    
     4    4    5 1    
     5    1    5 1    
     6    5    6 1    
     7    6    7 2    
     8    7    8 1    
     9    6    9 1    
    10    1   10 1    
    11   10   11 1    
    12    9   12 1    
    13   12   13 1    
    14   12   14 1    
    15   12   15 1    
    16    9   16 1    
    17    8   17 ar   
    18   17   18 ar   
    19   18   19 ar   
    20   19   20 ar   
    21   20   21 ar   
    22    8   21 ar   
    23   19   22 1    
    24   11   23 1    
    25   16   24 1    
    26   23   25 1    
    27   24   26 1    
    28    2   27 1    
    29    4   28 1    
    30    7   29 1    
    31    9   30 1    
    32   10   31 1    
    33   10   32 1    
    34   13   33 1    
    35   13   34 1    
    36   13   35 1    
    37   14   36 1    
    38   14   37 1    
    39   14   38 1    
    40   15   39 1    
    41   15   40 1    
    42   15   41 1    
    43   17   42 1    
    44   18   43 1    
    45   20   44 1    
    46   21   45 1    
    47   23   46 1    
    48   23   47 1    
    49   24   48 1    
    50   24   49 1    
    51   25   50 1    
    52   25   51 1    
    53   25   52 1    
    54   26   53 1    
    55   26   54 1    
    56   26   55 1    
@<TRIPOS>SUBSTRUCTURE
     1 ****        2 TEMP              0 ****  ****    0 ROOT 
@<TRIPOS>NORMAL
@<TRIPOS>FF_PBC
FORCE_FIELD_SETUP_FEATURE Force Field Setup information
v1.0  0 0.000000 0.000000 0.000000 0.000000 0.000000 0.000000 NONE 0 0 0 0 0 0 0 0 0 0 0 0 0
