#	Name:			PISM00327
#	Creating user name:	malab
#	Creation time:		Fri Apr 05 17:36:26 2019

#	Modifying user name:	malab
#	Modification time:	Fri Apr 05 17:37:11 2019

@<TRIPOS>MOLECULE
PISM00327
   43    43     1     1     0
SMALL
GAST_HUCK


@<TRIPOS>ATOM
      1 C1        -10.6293  -13.9622  -15.6522 C.3       1 <1>        -0.0297 
      2 C2        -11.8956  -14.7372  -15.1761 C.3       1 <1>         0.0206 
      3 C3        -11.9975  -16.0969  -15.8111 C.2       1 <1>         0.1468 
      4 C4        -11.2980  -16.3930  -17.0707 C.2       1 <1>         0.0132 
      5 C5        -10.6265  -15.4459  -17.7370 C.2       1 <1>        -0.0666 
      6 C6        -10.5787  -14.0190  -17.2167 C.3       1 <1>         0.0390 
      7 O7        -12.6624  -16.9674  -15.2724 O.2       1 <1>        -0.3649 
      8 C8         -9.3397  -14.5401  -14.9741 C.3       1 <1>        -0.0308 
      9 C9        -10.7726  -12.4767  -15.1921 C.3       1 <1>        -0.0688 
     10 C10        -9.0466  -15.9951  -15.2581 C.2       1 <1>        -0.0901 
     11 C11        -8.0485  -16.4115  -16.0473 C.2       1 <1>        -0.1175 
     12 O12       -11.7863  -13.4009  -17.7040 O.3       1 <1>        -0.4653 
     13 C13        -9.3554  -13.2783  -17.7224 C.2       1 <1>        -0.0859 
     14 C14        -9.3816  -12.0687  -18.2963 C.2       1 <1>        -0.0144 
     15 H1        -12.8159  -14.1974  -15.4477 H         1 <1>         0.0000 
     16 H2        -11.8779  -14.8417  -14.0795 H         1 <1>         0.0000 
     17 H3        -11.3450  -17.4151  -17.4466 H         1 <1>         0.0000 
     18 H4         -9.4405  -14.4582  -13.8802 H         1 <1>         0.0000 
     19 H5         -8.4671  -13.9255  -15.2414 H         1 <1>         0.0000 
     20 H6        -11.6599  -11.9985  -15.6334 H         1 <1>         0.0000 
     21 C21        -9.9185  -15.7424  -19.0426 C.3       1 <1>        -0.0367 
     22 H7         -9.8913  -11.8840  -15.4791 H         1 <1>         0.0000 
     23 H8        -10.8737  -12.4232  -14.0973 H         1 <1>         0.0000 
     24 H9         -9.6747  -16.7533  -14.7901 H         1 <1>         0.0000 
     25 H10        -7.3695  -15.7162  -16.5376 H         1 <1>         0.0000 
     26 H11        -7.8885  -17.4761  -16.2192 H         1 <1>         0.0000 
     27 H12       -11.8728  -13.4202  -18.6520 H         1 <1>         0.0000 
     28 H13        -8.3800  -13.7490  -17.6165 H         1 <1>         0.0000 
     29 C29        -8.1405  -11.4121  -18.7523 C.2       1 <1>         0.0000 
     30 H15       -10.3148  -11.5250  -18.4402 H         1 <1>         0.0000 
     31 H16       -10.2312  -16.7078  -19.4683 H         1 <1>         0.0000 
     32 H17        -8.8310  -15.7801  -18.8876 H         1 <1>         0.0000 
     33 H18       -10.1461  -14.9616  -19.7837 H         1 <1>         0.0000 
     34 C34        -7.0249  -11.2231  -17.7495 C.3       1 <1>         0.0000 
     35 C35        -7.9893  -10.9883  -20.0163 C.2       1 <1>         0.0000 
     36 C36        -8.9640  -11.1351  -21.1172 C.2       1 <1>         0.0000 
     37 O37       -10.0160  -11.7310  -20.9351 O.2       1 <1>         0.0000 
     38 O38        -8.6735  -10.6168  -22.3173 O.3       1 <1>         0.0000 
     39 H14        -6.2232  -11.9485  -17.9542 H         1 <1>         0.0000 
     40 H19        -7.3872  -11.3807  -16.7218 H         1 <1>         0.0000 
     41 H20        -6.6113  -10.2048  -17.8127 H         1 <1>         0.0000 
     42 H21        -7.0557  -10.4922  -20.2867 H         1 <1>         0.0000 
     43 H22        -9.3513  -10.7568  -22.9709 H         1 <1>         0.0000 
@<TRIPOS>BOND
     1    2    1 1    
     2    2    3 1    
     3    3    4 1    
     4    4    5 2    
     5    5    6 1    
     6    1    6 1    
     7    3    7 2    
     8    1    8 1    
     9    1    9 1    
    10    8   10 1    
    11   10   11 2    
    12    6   12 1    
    13    6   13 1    
    14   13   14 2    
    15    2   15 1    
    16    2   16 1    
    17    4   17 1    
    18    8   18 1    
    19    8   19 1    
    20    9   20 1    
    21    5   21 1    
    22    9   22 1    
    23    9   23 1    
    24   10   24 1    
    25   11   25 1    
    26   11   26 1    
    27   12   27 1    
    28   13   28 1    
    29   14   29 1    
    30   14   30 1    
    31   21   31 1    
    32   21   32 1    
    33   21   33 1    
    34   29   34 1    
    35   29   35 2    
    36   35   36 1    
    37   36   37 2    
    38   36   38 1    
    39   34   39 1    
    40   34   40 1    
    41   34   41 1    
    42   35   42 1    
    43   38   43 1    
@<TRIPOS>SUBSTRUCTURE
     1 ****        2 TEMP              0 ****  ****    0 ROOT 
@<TRIPOS>NORMAL
@<TRIPOS>FF_PBC
FORCE_FIELD_SETUP_FEATURE Force Field Setup information
v1.0  0 0.000000 0.000000 0.000000 0.000000 0.000000 0.000000 NONE 0 0 0 0 0 0 0 0 0 0 0 0 0
