#	Name:			PISM00320
#	Creating user name:	malab
#	Creation time:		Sat Apr 06 18:23:56 2019

#	Modifying user name:	malab
#	Modification time:	Sat Apr 06 18:25:51 2019

@<TRIPOS>MOLECULE
PISM00320
   63    64     1     1     0
SMALL
GAST_HUCK


@<TRIPOS>ATOM
      1 N1          3.9071    0.0141    2.1093 N.3       1 AZIDO      -0.3084 
      2 C2          6.6874    0.3918    1.3729 C.ar      1 AZIDO      -0.0499 
      3 C3          7.0202    0.1167    2.7038 C.ar      1 AZIDO      -0.0685 
      4 C4          7.8441    0.9913    3.4181 C.ar      1 AZIDO      -0.0398 
      5 C5          4.3116   -0.0481    0.6860 C.3       1 AZIDO       0.1140 
      6 C6          5.7728   -0.5553    0.5840 C.3       1 AZIDO       0.0094 
      7 C7          8.3450    2.1473    2.8141 C.ar      1 AZIDO       0.0805 
      8 C8          8.0203    2.4185    1.4788 C.ar      1 AZIDO      -0.0398 
      9 C9          7.1938    1.5458    0.7650 C.ar      1 AZIDO      -0.0685 
     10 O10         9.1590    3.0078    3.5569 O.3       1 AZIDO      -0.3376 
     11 H1          3.8895   -0.9798    2.5367 H         1 AZIDO       0.1213 
     12 C12         3.3899   -0.9361   -0.1250 C.2       1 AZIDO       0.2475 
     13 O13         2.6599   -1.7063    0.4764 O.2       1 AZIDO      -0.3680 
     14 N14         3.3921   -0.8632   -1.4292 N.pl3     1 AZIDO      -0.1505 
     15 N15         2.5759   -1.6428   -2.1756 N.2       1 AZIDO      -0.1358 
     16 C16         1.3150   -1.4635   -2.2339 C.2       1 AZIDO       0.0968 
     17 C17         0.6313   -0.3486   -1.4837 C.3       1 AZIDO      -0.0038 
     18 C18        -0.6407    0.1079   -2.2577 C.3       1 AZIDO      -0.0592 
     19 C19        -0.1863    0.7604   -3.5997 C.3       1 AZIDO      -0.0740 
     20 C20        -1.3855    1.1818   -1.4092 C.3       1 AZIDO      -0.0740 
     21 C21        -1.5540   -1.1441   -2.4801 C.3       1 AZIDO       0.0098 
     22 C22        -0.8075   -2.2644   -3.1870 C.2       1 AZIDO      -0.0885 
     23 C23         0.5210   -2.3846   -3.0623 C.2       1 AZIDO      -0.0136 
     24 C24        -1.6140   -3.2541   -4.0021 C.3       1 AZIDO      -0.0428 
     25 C25        -2.8942   -0.8122   -3.1129 C.2       1 AZIDO      -0.1113 
     26 C26        -3.1041   -0.5266   -4.4043 C.2       1 AZIDO      -0.0326 
     27 C27        -4.4713   -0.3209   -4.9223 C.2       1 AZIDO       0.0083 
     28 C28        -5.2681   -1.5574   -5.2651 C.3       1 AZIDO      -0.0163 
     29 C29        -5.0244    0.8891   -5.0924 C.2       1 AZIDO       0.0506 
     30 C30        -4.3994    2.1924   -4.8083 C.2       1 AZIDO       0.2626 
     31 O31        -3.2364    2.2588   -4.4484 O.2       1 AZIDO      -0.3540 
     32 O32        -5.1165    3.3083   -4.9496 O.3       1 AZIDO      -0.2939 
     33 O33        -1.8345   -1.6660   -1.1673 O.3       1 AZIDO      -0.4814 
     34 H2          2.9214    0.4512    2.2027 H         1 AZIDO       0.1213 
     35 H3          6.6389   -0.7755    3.1906 H         1 AZIDO       0.0530 
     36 H4          8.0990    0.7772    4.4509 H         1 AZIDO       0.0525 
     37 H5          4.2641    0.9756    0.2772 H         1 AZIDO       0.0733 
     38 H6          6.1033   -0.5927   -0.4662 H         1 AZIDO       0.0446 
     39 H7          5.8371   -1.5781    0.9884 H         1 AZIDO       0.0446 
     40 H8          8.4055    3.3062    0.9883 H         1 AZIDO       0.0525 
     41 H9          6.9452    1.7718   -0.2672 H         1 AZIDO       0.0530 
     42 H10         9.4451    3.7807    3.0837 H         1 AZIDO       0.2458 
     43 H11         4.0261   -0.2127   -1.9140 H         1 AZIDO       0.2514 
     44 H12         1.3049    0.5121   -1.3576 H         1 AZIDO       0.0436 
     45 H13         0.3754   -0.7246   -0.4817 H         1 AZIDO       0.0436 
     46 H14         0.2438    0.0207   -4.2901 H         1 AZIDO       0.0219 
     47 H15         0.5718    1.5372   -3.4180 H         1 AZIDO       0.0219 
     48 H16        -1.0254    1.2526   -4.1020 H         1 AZIDO       0.0219 
     49 H17        -2.2868    1.5367   -1.9306 H         1 AZIDO       0.0219 
     50 H18        -0.7331    2.0490   -1.2251 H         1 AZIDO       0.0219 
     51 H19        -1.6926    0.7708   -0.4355 H         1 AZIDO       0.0219 
     52 H20         1.0602   -3.1836   -3.5701 H         1 AZIDO       0.0958 
     53 H21        -1.8335   -2.8479   -4.9985 H         1 AZIDO       0.0402 
     54 H22        -2.5610   -3.4910   -3.4949 H         1 AZIDO       0.0402 
     55 H23        -1.0685   -4.1998   -4.1390 H         1 AZIDO       0.0402 
     56 H24        -3.7686   -0.8178   -2.4609 H         1 AZIDO       0.0471 
     57 H25        -2.2865   -0.4642   -5.1195 H         1 AZIDO       0.0968 
     58 H26        -6.1868   -1.5929   -4.6601 H         1 AZIDO       0.0428 
     59 H27        -4.6876   -2.4718   -5.0662 H         1 AZIDO       0.0428 
     60 H28        -5.5402   -1.5449   -6.3316 H         1 AZIDO       0.0428 
     61 H29        -6.0421    0.9503   -5.4760 H         1 AZIDO       0.0849 
     62 H30        -4.6085    4.0823   -4.7313 H         1 AZIDO       0.2515 
     63 H31        -2.3640   -2.4563   -1.1685 H         1 AZIDO       0.1757 
@<TRIPOS>BOND
     1    5    1 1    
     2    6    2 1    
     3    2    3 ar   
     4    3    4 ar   
     5    6    5 1    
     6    4    7 ar   
     7    7    8 ar   
     8    8    9 ar   
     9    2    9 ar   
    10    7   10 1    
    11    1   11 1    
    12    5   12 1    
    13   12   13 2    
    14   12   14 1    
    15   14   15 1    
    16   15   16 2    
    17   16   17 1    
    18   17   18 1    
    19   18   19 1    
    20   18   20 1    
    21   18   21 1    
    22   21   22 1    
    23   22   23 2    
    24   16   23 1    
    25   22   24 1    
    26   21   25 1    
    27   25   26 2    
    28   26   27 1    
    29   27   28 1    
    30   27   29 2    
    31   29   30 1    
    32   30   31 2    
    33   30   32 1    
    34   21   33 1    
    35    1   34 1    
    36    3   35 1    
    37    4   36 1    
    38    5   37 1    
    39    6   38 1    
    40    6   39 1    
    41    8   40 1    
    42    9   41 1    
    43   10   42 1    
    44   14   43 1    
    45   17   44 1    
    46   17   45 1    
    47   19   46 1    
    48   19   47 1    
    49   19   48 1    
    50   20   49 1    
    51   20   50 1    
    52   20   51 1    
    53   23   52 1    
    54   24   53 1    
    55   24   54 1    
    56   24   55 1    
    57   25   56 1    
    58   26   57 1    
    59   28   58 1    
    60   28   59 1    
    61   28   60 1    
    62   29   61 1    
    63   32   62 1    
    64   33   63 1    
@<TRIPOS>SUBSTRUCTURE
     1 AZIDO       6 PERM              0 ****  ****    0 ROOT 
@<TRIPOS>NORMAL
@<TRIPOS>FF_PBC
FORCE_FIELD_SETUP_FEATURE Force Field Setup information
v1.0  0 0.000000 0.000000 0.000000 0.000000 0.000000 0.000000 NONE 0 0 0 0 1 0 0 0 0 0 0 0 0
