#	Name:			PISM00608
#	Creating user name:	baoopengkun
#	Creation time:		Mon Dec 10 09:58:42 2018

#	Modifying user name:	baoopengkun
#	Modification time:	Mon Dec 10 09:59:04 2018

@<TRIPOS>MOLECULE
PISM00608
   44    47     1     2     0
SMALL
GAST_HUCK


@<TRIPOS>ATOM
      1 C1          3.5347    9.4733   -6.6413 C.ar      1 <1>        -0.0348 
      2 C2          2.6070    9.8722   -5.6746 C.ar      1 <1>        -0.0180 
      3 C3          2.1786    8.9668   -4.6999 C.ar      1 <1>         0.0714 
      4 C4          2.6871    7.6652   -4.6854 C.ar      1 <1>        -0.0180 
      5 C5          3.6129    7.2665   -5.6537 C.ar      1 <1>        -0.0348 
      6 C6          4.0260    8.1636   -6.6447 C.ar      1 <1>         0.0068 
      7 C7          5.0150    7.7022   -7.7245 C.3       1 <1>         0.1921 
      8 C8          6.4608    7.8538   -7.1893 C.3       1 <1>         0.1073 
      9 N9          7.5240    7.4333   -8.0927 N.pl3     1 <1>        -0.1814 
     10 N10         8.8593    7.4672   -7.8215 N.2       1 <1>        -0.1908 
     11 C11         9.5834    7.0383   -8.7872 C.2       1 <1>         0.0618 
     12 N12         8.5726    6.7068   -9.7526 N.2       1 <1>        -0.2870 
     13 C13         7.4296    6.9541   -9.2964 C.2       1 <1>         0.1270 
     14 O14         4.8307    8.3885   -8.9692 O.3       1 <1>        -0.3814 
     15 C15         3.6369    7.8623   -9.5570 C.3       1 <1>         0.0672 
     16 C16         3.6599    6.3867   -9.0817 C.3       1 <1>         0.1004 
     17 O17         4.7272    6.3551   -8.1186 O.3       1 <1>        -0.3757 
     18 C18         2.3021    5.9192   -8.4966 C.3       1 <1>         0.0981 
     19 O19         2.4225    4.5657   -8.0262 O.3       1 <1>        -0.3142 
     20 C20         1.2516    4.0579   -7.4649 C.ar      1 <1>         0.1060 
     21 C21         1.0199    4.2019   -6.0944 C.ar      1 <1>        -0.0317 
     22 C22        -0.1597    3.7100   -5.5283 C.ar      1 <1>        -0.0565 
     23 C23        -1.1037    3.0657   -6.3329 C.ar      1 <1>         0.0291 
     24 C24        -0.8669    2.9119   -7.7017 C.ar      1 <1>        -0.0426 
     25 C25         0.3107    3.4071   -8.2688 C.ar      1 <1>         0.0685 
     26 Cl26        1.0062    9.4627   -3.4966 Cl        1 <1>        -0.0420 
     27 H1          3.8736   10.1831   -7.3899 H         1 <1>         0.0849 
     28 H2          2.2177   10.8854   -5.6787 H         1 <1>         0.0703 
     29 H3          2.3617    6.9662   -3.9216 H         1 <1>         0.0703 
     30 H4          4.0099    6.2557   -5.6381 H         1 <1>         0.0849 
     31 H5          6.5627    7.2595   -6.2693 H         1 <1>         0.0595 
     32 H6          6.6348    8.9129   -6.9482 H         1 <1>         0.0595 
     33 H7         10.6665    6.9496   -8.8562 H         1 <1>         0.0863 
     34 H8          6.5196    6.7756   -9.8652 H         1 <1>         0.1361 
     35 H9          3.6565    7.9740  -10.6522 H         1 <1>         0.0576 
     36 H10         2.7686    8.4097   -9.1584 H         1 <1>         0.0576 
     37 H11         3.9501    5.7049   -9.8977 H         1 <1>         0.0635 
     38 H12         1.5356    5.9769   -9.2864 H         1 <1>         0.0641 
     39 H13         1.9993    6.5750   -7.6670 H         1 <1>         0.0641 
     40 H14         1.7595    4.6962   -5.4740 H         1 <1>         0.0543 
     41 H15        -0.3442    3.8268   -4.4652 H         1 <1>         0.0597 
     42 Cl42       -2.5834    2.4506   -5.6257 Cl        1 <1>        -0.0810 
     43 H43        -1.5978    2.4077   -8.3247 H         1 <1>         0.0601 
     44 Cl44        0.6041    3.2122   -9.9852 Cl        1 <1>        -0.0787 
@<TRIPOS>BOND
     1    2    1 ar   
     2    2    3 ar   
     3    3    4 ar   
     4    4    5 ar   
     5    5    6 ar   
     6    1    6 ar   
     7    6    7 1    
     8    7    8 1    
     9    8    9 1    
    10    9   10 1    
    11   10   11 2    
    12   11   12 1    
    13   12   13 2    
    14    9   13 1    
    15    7   14 1    
    16   14   15 1    
    17   15   16 1    
    18   16   17 1    
    19    7   17 1    
    20   16   18 1    
    21   18   19 1    
    22   19   20 1    
    23   20   21 ar   
    24   21   22 ar   
    25   22   23 ar   
    26   23   24 ar   
    27   24   25 ar   
    28   20   25 ar   
    29    3   26 1    
    30    1   27 1    
    31    2   28 1    
    32    4   29 1    
    33    5   30 1    
    34    8   31 1    
    35    8   32 1    
    36   11   33 1    
    37   13   34 1    
    38   15   35 1    
    39   15   36 1    
    40   16   37 1    
    41   18   38 1    
    42   18   39 1    
    43   21   40 1    
    44   22   41 1    
    45   23   42 1    
    46   24   43 1    
    47   25   44 1    
@<TRIPOS>SUBSTRUCTURE
     1 ****        2 TEMP              0 ****  ****    0 ROOT 
@<TRIPOS>NORMAL
@<TRIPOS>FF_PBC
FORCE_FIELD_SETUP_FEATURE Force Field Setup information
v1.0  0 0.000000 0.000000 0.000000 0.000000 0.000000 0.000000 NONE 0 0 0 0 1 0 0 0 0 0 0 0 0
@<TRIPOS>RENDERING_ATTRS
ANTIALIASED_LINES 
*
