#	Name:			M00171
#	Creating user name:	XiyangLee
#	Creation time:		Tue Aug 31 18:03:50 2021

#	Modifying user name:	XiyangLee
#	Modification time:	Tue Aug 31 18:06:00 2021

@<TRIPOS>MOLECULE
M00171
   15    15     1     1     1
SMALL
GAST_HUCK
****
From 3DB ct
@<TRIPOS>ATOM
      1 I           1.6012   -2.4351    0.2432 I         1 <1>        -0.0391 
      2 C           0.2273   -0.9042    0.1306 C.ar      1 <1>         0.0442 
      3 C           0.6344    0.4390    0.0688 C.ar      1 <1>         0.0786 
      4 C          -0.3319    1.4378   -0.1070 C.ar      1 <1>        -0.0242 
      5 H          -0.0362    2.4783   -0.1954 H         1 <1>         0.0729 
      6 C          -1.6902    1.1211   -0.1672 C.ar      1 <1>         0.0207 
      7 I          -3.0875    2.6023   -0.4279 I         1 <1>        -0.0452 
      8 C          -2.0932   -0.2090   -0.0471 C.ar      1 <1>        -0.0323 
      9 H          -3.1490   -0.4573   -0.0734 H         1 <1>         0.0716 
     10 C          -1.1394   -1.2184    0.1050 C.ar      1 <1>         0.0292 
     11 I          -1.8021   -3.1573    0.2850 I         1 <1>        -0.0445 
     12 C           2.0807    0.8826    0.1843 C.2       1 <1>         0.2641 
     13 O           3.0326    0.0705    0.6445 O.3       1 <1>        -0.2929 
     14 H           3.8863    0.4893    0.6612 H         1 <1>         0.2524 
     15 O           2.3818    2.0204   -0.1426 O.2       1 <1>        -0.3556 
@<TRIPOS>BOND
     1    1    2 1    
     2    2    3 ar   
     3    3    4 ar   
     4    4    5 1    
     5    4    6 ar   
     6    6    7 1    
     7    6    8 ar   
     8    8    9 1    
     9    8   10 ar   
    10   10    2 ar   
    11   10   11 1    
    12    3   12 1    
    13   12   13 1    
    14   13   14 1    
    15   12   15 2    
@<TRIPOS>SUBSTRUCTURE
     1 ****        1 TEMP              0 ****  ****    0 ROOT 
@<TRIPOS>SET
UNITY_3DHIT     STATIC     ATOMS    <user>   **** Atoms matching 3D or FLEX Search
0
@<TRIPOS>NORMAL
@<TRIPOS>FF_PBC
FORCE_FIELD_SETUP_FEATURE Force Field Setup information
v1.0  0 0.000000 0.000000 0.000000 0.000000 0.000000 0.000000 NONE 0 0 0 0 1 0 0 0 0 0 0 0 0
