#	Name:			PISM00387
#	Creating user name:	baoopengkun
#	Creation time:		Sun Mar 31 16:33:15 2019

#	Modifying user name:	baoopengkun
#	Modification time:	Sun Mar 31 16:36:02 2019

@<TRIPOS>MOLECULE
PISM00387
   46    46     1     1     0
SMALL
GAST_HUCK


@<TRIPOS>ATOM
      1 C1         -5.0214    2.5494   -4.3970 C.3       1 <1>        -0.0542 
      2 C2         -4.2483    3.5815   -3.5157 C.3       1 <1>         0.0202 
      3 C3         -2.7617    3.5841   -3.9998 C.3       1 <1>        -0.0542 
      4 C4         -4.8460    4.9964   -3.7553 C.3       1 <1>         0.0297 
      5 C5         -6.2194    5.0578   -3.1479 C.2       1 <1>         0.1060 
      6 C6         -6.3118    4.8298   -1.6656 C.3       1 <1>         0.0271 
      7 C7         -5.6903    3.4592   -1.2789 C.3       1 <1>         0.0117 
      8 C8         -4.2972    3.2690   -1.9755 C.3       1 <1>         0.1338 
      9 O9         -7.2091    5.2807   -3.8255 O.2       1 <1>        -0.3916 
     10 C10        -6.7222    2.3050   -1.4354 C.3       1 <1>        -0.0568 
     11 C11        -3.7637    1.9227   -1.7494 C.1       1 <1>        -0.0746 
     12 C12        -3.3097    0.8212   -1.5858 C.1       1 <1>        -0.0832 
     13 C13        -2.7515   -0.4956   -1.4052 C.2       1 <1>        -0.0119 
     14 C14        -1.3838   -0.7476   -1.9870 C.3       1 <1>        -0.0336 
     15 C15        -3.4439   -1.4393   -0.7488 C.2       1 <1>        -0.0671 
     16 C16        -4.8182   -1.1785   -0.1892 C.3       1 <1>         0.0156 
     17 S17        -5.3981   -2.6268    0.7550 S.3       1 <1>        -0.1489 
     18 C18        -7.0109   -2.0073    1.3327 C.3       1 <1>        -0.0071 
     19 C19        -7.7548   -3.1638    2.0421 C.3       1 <1>        -0.0560 
     20 O20        -3.3833    4.1989   -1.3549 O.3       1 <1>        -0.3764 
     21 H1         -6.1070    2.6926   -4.3492 H         1 <1>         0.0238 
     22 H2         -4.7880    1.5135   -4.1087 H         1 <1>         0.0238 
     23 H3         -4.7474    2.6681   -5.4567 H         1 <1>         0.0238 
     24 H4         -2.3125    2.5858   -3.8845 H         1 <1>         0.0238 
     25 H5         -2.1463    4.3032   -3.4390 H         1 <1>         0.0238 
     26 H6         -2.6971    3.8638   -5.0623 H         1 <1>         0.0238 
     27 H7         -4.8976    5.2175   -4.8324 H         1 <1>         0.0500 
     28 H8         -4.2263    5.7714   -3.2773 H         1 <1>         0.0500 
     29 H9         -7.3601    4.8953   -1.3364 H         1 <1>         0.0498 
     30 H10        -5.7593    5.6458   -1.1775 H         1 <1>         0.0498 
     31 H11        -5.5010    3.4815   -0.1918 H         1 <1>         0.0360 
     32 H12        -7.1834    2.2716   -2.4272 H         1 <1>         0.0235 
     33 H13        -7.5398    2.4375   -0.7090 H         1 <1>         0.0235 
     34 H14        -6.2513    1.3344   -1.2324 H         1 <1>         0.0235 
     35 H15        -1.0042   -1.7572   -1.7690 H         1 <1>         0.0355 
     36 H16        -0.6721   -0.0156   -1.5776 H         1 <1>         0.0355 
     37 H17        -1.4263   -0.6230   -3.0795 H         1 <1>         0.0355 
     38 H18        -3.0111   -2.4310   -0.6171 H         1 <1>         0.0538 
     39 H19        -5.5188   -1.0063   -1.0209 H         1 <1>         0.0524 
     40 H20        -4.8036   -0.2995    0.4747 H         1 <1>         0.0524 
     41 H21        -7.5983   -1.6516    0.4720 H         1 <1>         0.0375 
     42 H22        -6.8516   -1.1690    2.0288 H         1 <1>         0.0375 
     43 H23        -8.7540   -2.8336    2.3658 H         1 <1>         0.0238 
     44 H24        -7.1889   -3.4953    2.9263 H         1 <1>         0.0238 
     45 H25        -7.8717   -4.0173    1.3566 H         1 <1>         0.0238 
     46 H26        -3.2154    4.0243   -0.4337 H         1 <1>         0.2113 
@<TRIPOS>BOND
     1    2    1 1    
     2    2    3 1    
     3    2    4 1    
     4    4    5 1    
     5    5    6 1    
     6    6    7 1    
     7    7    8 1    
     8    2    8 1    
     9    5    9 2    
    10    7   10 1    
    11    8   11 1    
    12   11   12 3    
    13   12   13 1    
    14   13   14 1    
    15   13   15 2    
    16   15   16 1    
    17   16   17 1    
    18   17   18 1    
    19   18   19 1    
    20    8   20 1    
    21    1   21 1    
    22    1   22 1    
    23    1   23 1    
    24    3   24 1    
    25    3   25 1    
    26    3   26 1    
    27    4   27 1    
    28    4   28 1    
    29    6   29 1    
    30    6   30 1    
    31    7   31 1    
    32   10   32 1    
    33   10   33 1    
    34   10   34 1    
    35   14   35 1    
    36   14   36 1    
    37   14   37 1    
    38   15   38 1    
    39   16   39 1    
    40   16   40 1    
    41   18   41 1    
    42   18   42 1    
    43   19   43 1    
    44   19   44 1    
    45   19   45 1    
    46   20   46 1    
@<TRIPOS>SUBSTRUCTURE
     1 ****        2 TEMP              0 ****  ****    0 ROOT 
@<TRIPOS>NORMAL
@<TRIPOS>FF_PBC
FORCE_FIELD_SETUP_FEATURE Force Field Setup information
v1.0  0 0.000000 0.000000 0.000000 0.000000 0.000000 0.000000 NONE 0 0 0 0 1 0 0 0 0 0 0 0 0
