#	Name:			PISM00465
#	Creating user name:	Administrator
#	Creation time:		Sat Feb 23 00:08:02 2019

#	Modifying user name:	Administrator
#	Modification time:	Sat Feb 23 00:24:15 2019

@<TRIPOS>MOLECULE
PISM00465
   42    43     1     2     0
SMALL
GAST_HUCK


@<TRIPOS>ATOM
      1 C1          6.1739    0.5883    3.5192 C.2       1 PHENYL     -0.0038 
      2 N2          5.3684    0.0911    2.6786 N.2       1 PHENYL     -0.2468 
      3 N3          4.4055    0.9843    2.3703 N.pl3     1 PHENYL     -0.2257 
      4 C4          4.6095    2.0960    3.0263 C.2       1 PHENYL      0.0587 
      5 C5          5.7093    1.9567    3.7791 C.2       1 PHENYL     -0.0133 
      6 C6          6.3711    2.9479    4.7024 C.3       1 PHENYL      0.0433 
      7 N7          5.9961    2.6688    6.0821 N.am      1 PHENYL     -0.2365 
      8 S8          7.2633    2.9672    7.4270 S.o2      1 PHENYL      0.0519 
      9 O9          8.4906    2.2816    7.0762 O.2       1 PHENYL     -0.1530 
     10 O10         6.6508    2.7232    8.7175 O.2       1 PHENYL     -0.1530 
     11 C11         7.5184    4.7377    7.2409 C.3       1 PHENYL      0.1194 
     12 C           8.3240    5.2404    8.4476 C.ar      1 PHENYL      0.0078 
     13 C           9.7249    5.2558    8.4143 C.ar      1 PHENYL      0.0434 
     14 C          10.4510    5.7838    9.4857 C.ar      1 PHENYL     -0.0544 
     15 C           9.7866    6.2887   10.6058 C.ar      1 PHENYL     -0.0677 
     16 C           8.3932    6.2197   10.6697 C.ar      1 PHENYL     -0.0544 
     17 C           7.6648    5.6875    9.6017 C.ar      1 PHENYL      0.0434 
     18 C18         7.3537   -0.1382    4.1023 C.3       1 PHENYL     -0.0319 
     19 C19         3.7029    3.2963    2.9027 C.3       1 PHENYL     -0.0085 
     20 C20         3.3239    0.7164    1.4349 C.3       1 PHENYL      0.0529 
     21 C21         4.6857    2.1476    6.4498 C.3       1 PHENYL      0.0190 
     22 H22        10.3500    6.7300   11.4228 H         1 PHENYL      0.0560 
     23 H1          6.1118    3.9858    4.4553 H         1 PHENYL      0.0535 
     24 H2          7.4612    2.8514    4.5891 H         1 PHENYL      0.0535 
     25 H3          6.5371    5.2279    7.1785 H         1 PHENYL      0.0686 
     26 H4          8.0361    4.9284    6.2902 H         1 PHENYL      0.0686 
     27 Cl27       10.6032    4.6130    7.0383 Cl        1 PHENYL     -0.0771 
     28 H28        11.5360    5.7997    9.4469 H         1 PHENYL      0.0607 
     29 H29         7.8729    6.5799   11.5516 H         1 PHENYL      0.0607 
     30 Cl30        5.9192    5.5911    9.7445 Cl        1 PHENYL     -0.0771 
     31 H9          7.8327    0.4457    4.9012 H         1 PHENYL      0.0367 
     32 H10         8.0879   -0.3340    3.3070 H         1 PHENYL      0.0367 
     33 H11         7.0142   -1.0966    4.5215 H         1 PHENYL      0.0367 
     34 H12         3.9494    4.0945    3.6152 H         1 PHENYL      0.0412 
     35 H13         2.6641    2.9890    3.0921 H         1 PHENYL      0.0412 
     36 H14         3.7769    3.7038    1.8838 H         1 PHENYL      0.0412 
     37 H15         2.3631    0.6940    1.9699 H         1 PHENYL      0.0585 
     38 H16         3.4877   -0.2646    0.9645 H         1 PHENYL      0.0585 
     39 H17         3.2921    1.4834    0.6469 H         1 PHENYL      0.0585 
     40 H18         4.6787    1.0548    6.3236 H         1 PHENYL      0.0443 
     41 H19         3.8987    2.5855    5.8195 H         1 PHENYL      0.0443 
     42 H20         4.4546    2.3854    7.4980 H         1 PHENYL      0.0443 
@<TRIPOS>BOND
     1    1    2 2    
     2    2    3 1    
     3    4    3 1    
     4    5    4 2    
     5    5    1 1    
     6    6    5 1    
     7    7    6 1    
     8    8    7 1    
     9    8    9 2    
    10    8   10 2    
    11   11    8 1    
    12   12   13 ar   
    13   12   17 ar   
    14   17   16 ar   
    15   16   15 ar   
    16   14   15 ar   
    17   13   14 ar   
    18   12   11 1    
    19    1   18 1    
    20    4   19 1    
    21    3   20 1    
    22    7   21 1    
    23   15   22 1    
    24    6   23 1    
    25    6   24 1    
    26   11   25 1    
    27   11   26 1    
    28   13   27 1    
    29   14   28 1    
    30   16   29 1    
    31   17   30 1    
    32   18   31 1    
    33   18   32 1    
    34   18   33 1    
    35   19   34 1    
    36   19   35 1    
    37   19   36 1    
    38   20   37 1    
    39   20   38 1    
    40   20   39 1    
    41   21   40 1    
    42   21   41 1    
    43   21   42 1    
@<TRIPOS>SUBSTRUCTURE
     1 PHENYL     12 PERM              0 ****  ****    0 ROOT 
@<TRIPOS>NORMAL
@<TRIPOS>FF_PBC
FORCE_FIELD_SETUP_FEATURE Force Field Setup information
v1.0  0 0.000000 0.000000 0.000000 0.000000 0.000000 0.000000 NONE 0 0 0 0 1 0 0 0 0 0 0 0 0
@<TRIPOS>RENDERING_ATTRS
ANTIALIASED_LINES 
*
