#	Name:			PISM00909.1
#	Creating user name:	baoopengkun
#	Creation time:		Fri Dec 14 10:31:16 2018

#	Modifying user name:	baoopengkun
#	Modification time:	Fri Dec 14 10:39:11 2018

@<TRIPOS>MOLECULE
PISM00909.1
   29    31     1     1     0
SMALL
GAST_HUCK


@<TRIPOS>ATOM
      1 C1         25.2315   17.5433  -13.8839 C.ar      1 <1>        -0.0488 
      2 C2         25.0244   18.9290  -13.8717 C.ar      1 <1>        -0.0346 
      3 C3         24.0519   19.5236  -13.0478 C.ar      1 <1>         0.0460 
      4 C4         23.2570   18.7245  -12.2116 C.ar      1 <1>        -0.0192 
      5 C5         23.4705   17.3470  -12.2302 C.ar      1 <1>         0.0623 
      6 C6         24.4330   16.7694  -13.0441 C.ar      1 <1>         0.0597 
      7 C7         24.3562   15.2864  -12.7785 C.2       1 <1>         0.2347 
      8 N8         23.4004   15.0415  -11.8608 N.am      1 <1>        -0.1420 
      9 C9         22.8275   16.2018  -11.4885 C.2       1 <1>         0.2415 
     10 O10        25.0661   14.4584  -13.3230 O.2       1 <1>        -0.3731 
     11 O11        21.9272   16.3304  -10.6769 O.2       1 <1>        -0.3668 
     12 C12        23.0132   13.7259  -11.3839 C.3       1 <1>         0.2213 
     13 O13        22.2823   13.0564  -12.4305 O.3       1 <1>        -0.2348 
     14 C14        23.0175   11.9972  -12.7466 C.2       1 <1>         0.2491 
     15 C15        24.2444   11.8315  -11.9759 C.2       1 <1>         0.0288 
     16 C16        24.2363   12.8728  -11.1456 C.2       1 <1>        -0.0059 
     17 C17        25.2713   10.7407  -12.1088 C.3       1 <1>        -0.0323 
     18 O18        22.6797   11.2132  -13.6169 O.2       1 <1>        -0.3691 
     19 N19        23.8799   20.8691  -13.0590 N.pl3     1 <1>        -0.3333 
     20 H20        24.4564   21.4690  -13.6683 H         1 <1>         0.1738 
     21 H21        23.1693   21.3134  -12.4578 H         1 <1>         0.1738 
     22 H1         25.9811   17.0820  -14.5186 H         1 <1>         0.0648 
     23 H2         25.6361   19.5493  -14.5188 H         1 <1>         0.0561 
     24 H3         22.4963   19.1481  -11.5651 H         1 <1>         0.0584 
     25 H4         22.3952   13.7808  -10.4721 H         1 <1>         0.1152 
     26 H5         25.0042   13.0906  -10.4047 H         1 <1>         0.0702 
     27 H6         24.8745    9.8111  -11.6750 H         1 <1>         0.0347 
     28 H7         26.2028   11.0127  -11.5899 H         1 <1>         0.0347 
     29 H8         25.4920   10.5743  -13.1738 H         1 <1>         0.0347 
@<TRIPOS>BOND
     1    2    1 ar   
     2    2    3 ar   
     3    3    4 ar   
     4    4    5 ar   
     5    5    6 ar   
     6    1    6 ar   
     7    6    7 1    
     8    7    8 am   
     9    8    9 am   
    10    5    9 1    
    11    7   10 2    
    12    9   11 2    
    13    8   12 1    
    14   12   13 1    
    15   13   14 1    
    16   14   15 1    
    17   15   16 2    
    18   12   16 1    
    19   15   17 1    
    20   14   18 2    
    21    3   19 1    
    22   19   20 1    
    23   19   21 1    
    24    1   22 1    
    25    2   23 1    
    26    4   24 1    
    27   12   25 1    
    28   16   26 1    
    29   17   27 1    
    30   17   28 1    
    31   17   29 1    
@<TRIPOS>SUBSTRUCTURE
     1 ****        2 TEMP              0 ****  ****    0 ROOT 
@<TRIPOS>NORMAL
@<TRIPOS>FF_PBC
FORCE_FIELD_SETUP_FEATURE Force Field Setup information
v1.0  0 0.000000 0.000000 0.000000 0.000000 0.000000 0.000000 NONE 0 0 0 0 1 0 0 0 0 0 0 0 0
