#	Name:			PISM00777.1
#	Creating user name:	baoopengkun
#	Creation time:		Fri Nov 30 21:58:07 2018

#	Modifying user name:	baoopengkun
#	Modification time:	Fri Nov 30 22:18:25 2018

@<TRIPOS>MOLECULE
PISM00777.1
   27    28     1     2     0
SMALL
GAST_HUCK


@<TRIPOS>ATOM
      1 C1        -28.8902   15.3224  -19.1920 C.2       1 <1>         0.1072 
      2 C2        -29.3427   14.0621  -19.7885 C.2       1 <1>        -0.0006 
      3 C3        -28.5586   12.9816  -19.6974 C.2       1 <1>         0.1481 
      4 O4        -27.3706   13.0259  -19.0760 O.3       1 <1>        -0.2396 
      5 C5        -26.9168   14.1323  -18.4655 C.2       1 <1>         0.1306 
      6 C6        -27.6042   15.2822  -18.4580 C.2       1 <1>         0.1552 
      7 O7        -29.5806   16.3162  -19.3469 O.2       1 <1>        -0.4437 
      8 C8        -28.9053   11.6275  -20.2610 C.3       1 <1>         0.1228 
      9 O9        -28.8545   10.6749  -19.1861 O.3       1 <1>        -0.3734 
     10 O10       -27.0859   16.3329  -17.7888 O.3       1 <1>        -0.2812 
     11 C11       -27.9130   17.4885  -17.5675 C.3       1 <1>         0.2306 
     12 C12       -29.0705   17.1745  -16.6412 C.2       1 <1>        -0.0028 
     13 C13       -28.9461   17.8272  -15.4873 C.2       1 <1>         0.0291 
     14 C14       -27.7082   18.5766  -15.6511 C.2       1 <1>         0.2494 
     15 O15       -27.1005   18.4212  -16.8211 O.3       1 <1>        -0.2321 
     16 C16       -29.8565   17.7900  -14.2909 C.3       1 <1>        -0.0323 
     17 O17       -27.2570   19.3026  -14.7808 O.2       1 <1>        -0.3691 
     18 H1        -30.3062   14.0230  -20.2981 H         1 <1>         0.0252 
     19 H2        -25.9560   14.0684  -17.9565 H         1 <1>         0.1034 
     20 H3        -28.1635   11.3721  -21.0349 H         1 <1>         0.0827 
     21 H4        -29.9088   11.6272  -20.7189 H         1 <1>         0.0827 
     22 H5        -29.0427    9.7863  -19.4717 H         1 <1>         0.2140 
     23 H6        -28.1994   18.0108  -18.4919 H         1 <1>         0.1189 
     24 H7        -29.9034   16.5065  -16.8568 H         1 <1>         0.0705 
     25 H8        -30.3826   16.8244  -14.2372 H         1 <1>         0.0347 
     26 H9        -30.5987   18.5976  -14.3733 H         1 <1>         0.0347 
     27 H10       -29.2725   17.9286  -13.3684 H         1 <1>         0.0347 
@<TRIPOS>BOND
     1    2    1 1    
     2    2    3 2    
     3    3    4 1    
     4    4    5 1    
     5    5    6 2    
     6    1    6 1    
     7    1    7 2    
     8    3    8 1    
     9    8    9 1    
    10    6   10 1    
    11   10   11 1    
    12   11   12 1    
    13   12   13 2    
    14   13   14 1    
    15   14   15 1    
    16   11   15 1    
    17   13   16 1    
    18   14   17 2    
    19    2   18 1    
    20    5   19 1    
    21    8   20 1    
    22    8   21 1    
    23    9   22 1    
    24   11   23 1    
    25   12   24 1    
    26   16   25 1    
    27   16   26 1    
    28   16   27 1    
@<TRIPOS>SUBSTRUCTURE
     1 ****        2 TEMP              0 ****  ****    0 ROOT 
@<TRIPOS>NORMAL
@<TRIPOS>FF_PBC
FORCE_FIELD_SETUP_FEATURE Force Field Setup information
v1.0  0 0.000000 0.000000 0.000000 0.000000 0.000000 0.000000 NONE 0 0 0 0 0 0 0 0 0 0 0 0 0
@<TRIPOS>RENDERING_ATTRS
ANTIALIASED_LINES 
*
