#	Name:			PISM00557
#	Creating user name:	baoopengkun
#	Creation time:		Sat Dec 15 14:51:35 2018

#	Modifying user name:	baoopengkun
#	Modification time:	Sat Dec 15 15:05:11 2018

@<TRIPOS>MOLECULE
PISM00557
   37    38     1     1     0
SMALL
GAST_HUCK


@<TRIPOS>ATOM
      1 C1          7.2590   10.1232   19.0157 C.3       1 <1>        -0.0559 
      2 C2          8.4237   11.1563   17.0153 C.3       1 <1>        -0.0559 
      3 N3          1.7991    5.5696   16.1989 N.pl3     1 <1>         0.1190 
      4 O4          2.9907    5.7533   16.0833 O.2       1 <1>        -0.1153 
      5 O5          1.1285    4.9885   15.3732 O.2       1 <1>        -0.1153 
      6 H1          7.4643   11.0248   19.6129 H         1 <1>         0.0238 
      7 C7          5.9216   11.4827   17.3156 C.3       1 <1>         0.0215 
      8 C8          7.1052   10.4910   17.5087 C.3       1 <1>        -0.0065 
      9 C9          6.8270    9.2103   16.6702 C.3       1 <1>         0.0215 
     10 C10         5.5067    8.5887   17.0357 C.2       1 <1>         0.1085 
     11 C11         4.3818    9.3993   17.5406 C.2       1 <1>         0.0848 
     12 C12         4.5975   10.8551   17.6611 C.2       1 <1>         0.1085 
     13 O13         3.6909   11.5738   18.0493 O.2       1 <1>        -0.4053 
     14 O14         5.3575    7.3821   16.9169 O.2       1 <1>        -0.4053 
     15 C15         3.2092    8.8379   17.8791 C.2       1 <1>         0.0666 
     16 N16         2.9798    7.5500   17.7813 N.pl3     1 <1>        -0.2582 
     17 C17         1.7918    6.9968   18.1367 C.ar      1 <1>         0.0991 
     18 C18         1.1703    7.3908   19.3289 C.ar      1 <1>        -0.0463 
     19 C19        -0.0959    6.9087   19.6673 C.ar      1 <1>        -0.0835 
     20 C20        -0.7280    5.9853   18.8336 C.ar      1 <1>        -0.0840 
     21 C21        -0.0832    5.5386   17.6775 C.ar      1 <1>        -0.0445 
     22 C22         1.1818    6.0283   17.3207 C.ar      1 <1>         0.1584 
     23 H2          8.0957    9.4220   19.1569 H         1 <1>         0.0238 
     24 H3          6.3498    9.6513   19.4160 H         1 <1>         0.0238 
     25 H4          9.2740   10.4678   17.1370 H         1 <1>         0.0238 
     26 H5          8.6345   12.0711   17.5905 H         1 <1>         0.0238 
     27 H6          8.3512   11.4284   15.9511 H         1 <1>         0.0238 
     28 H7          5.8596   11.8265   16.2718 H         1 <1>         0.0480 
     29 H8          6.0771   12.3649   17.9566 H         1 <1>         0.0480 
     30 H9          7.6291    8.4760   16.8449 H         1 <1>         0.0480 
     31 H10         6.7998    9.4376   15.5936 H         1 <1>         0.0480 
     32 H11         2.4299    9.5113   18.2427 H         1 <1>         0.1312 
     33 H12         3.7200    6.9282   17.3953 H         1 <1>         0.2252 
     34 H13         1.6701    8.0715   20.0104 H         1 <1>         0.0507 
     35 H35        -1.7169    5.6137   19.0859 H         1 <1>         0.0495 
     36 H14        -0.5856    7.2482   20.5754 H         1 <1>         0.0479 
     37 H15        -0.5845    4.7990   17.0613 H         1 <1>         0.0484 
@<TRIPOS>BOND
     1    8    1 1    
     2    8    2 1    
     3   22    3 1    
     4    3    4 2    
     5    3    5 2    
     6    1    6 1    
     7    1   23 1    
     8    7    8 1    
     9    8    9 1    
    10    9   10 1    
    11   11   10 1    
    12   12   11 1    
    13    7   12 1    
    14   12   13 2    
    15   10   14 2    
    16   11   15 2    
    17   15   16 1    
    18   16   17 1    
    19   17   18 ar   
    20   18   19 ar   
    21   19   20 ar   
    22   21   20 ar   
    23   22   21 ar   
    24   17   22 ar   
    25    1   24 1    
    26    2   25 1    
    27    2   26 1    
    28    2   27 1    
    29    7   28 1    
    30    7   29 1    
    31    9   30 1    
    32    9   31 1    
    33   15   32 1    
    34   16   33 1    
    35   18   34 1    
    36   20   35 1    
    37   19   36 1    
    38   21   37 1    
@<TRIPOS>SUBSTRUCTURE
     1 ****        7 TEMP              0 ****  ****    0 ROOT 
@<TRIPOS>NORMAL
@<TRIPOS>FF_PBC
FORCE_FIELD_SETUP_FEATURE Force Field Setup information
v1.0  0 0.000000 0.000000 0.000000 0.000000 0.000000 0.000000 NONE 0 0 0 0 1 0 0 0 0 0 0 0 0
