#	Name:			PISM00823.1
#	Creating user name:	baoopengkun
#	Creation time:		Sat Dec 15 02:38:13 2018

#	Modifying user name:	baoopengkun
#	Modification time:	Sat Dec 15 02:40:27 2018

@<TRIPOS>MOLECULE
PISM00823.1
   33    34     1     1     0
SMALL
GAST_HUCK


@<TRIPOS>ATOM
      1 N1         -1.1123   16.5543  -50.2512 N.pl3     1 <1>         0.1191 
      2 O2         -1.3498   15.6776  -51.0540 O.2       1 <1>        -0.1138 
      3 O3         -1.9434   17.3464  -49.8623 O.2       1 <1>        -0.1138 
      4 C4          0.1532   16.6540  -49.7605 C.ar      1 <1>         0.1269 
      5 C5          1.1611   15.7740  -50.1791 C.ar      1 <1>        -0.0414 
      6 C6          2.4545   15.8583  -49.6550 C.ar      1 <1>        -0.0733 
      7 C7          2.7791   16.8349  -48.7082 C.ar      1 <1>        -0.0507 
      8 C8          1.7891   17.7441  -48.3206 C.ar      1 <1>        -0.0733 
      9 C9          0.4883   17.6404  -48.8223 C.ar      1 <1>        -0.0414 
     10 C10         4.1781   16.9056  -48.1265 C.2       1 <1>        -0.0389 
     11 C11         5.3507   16.7219  -49.0646 C.3       1 <1>        -0.0454 
     12 C12         4.3645   17.1213  -46.8154 C.2       1 <1>         0.0566 
     13 O13         3.3070   17.2541  -46.0004 O.3       1 <1>        -0.2840 
     14 C14         3.6389   17.4352  -44.6124 C.3       1 <1>         0.2350 
     15 C15         4.2243   16.1668  -44.0332 C.2       1 <1>        -0.0015 
     16 C16         3.4081   15.6498  -43.1172 C.2       1 <1>         0.0292 
     17 C17         2.2964   16.5923  -43.0804 C.2       1 <1>         0.2495 
     18 O18         2.4008   17.6303  -43.9002 O.3       1 <1>        -0.2310 
     19 C19         3.5946   14.3985  -42.3033 C.3       1 <1>        -0.0323 
     20 O20         1.3371   16.4467  -42.3425 O.2       1 <1>        -0.3691 
     21 H1          0.9541   15.0074  -50.9190 H         1 <1>         0.0510 
     22 H2          3.2043   15.1498  -49.9893 H         1 <1>         0.0538 
     23 H3          2.0244   18.5479  -47.6307 H         1 <1>         0.0538 
     24 H4         -0.2577   18.3452  -48.4691 H         1 <1>         0.0510 
     25 H5          5.1560   17.2662  -50.0011 H         1 <1>         0.0322 
     26 H6          5.4838   15.6546  -49.2936 H         1 <1>         0.0322 
     27 H7          6.2940   17.1016  -48.6438 H         1 <1>         0.0322 
     28 H8          5.3887   17.1748  -46.4408 H         1 <1>         0.0919 
     29 H9          4.2844   18.3135  -44.4425 H         1 <1>         0.1204 
     30 H10         5.1772   15.7261  -44.3228 H         1 <1>         0.0706 
     31 H11         2.8795   14.3783  -41.4672 H         1 <1>         0.0347 
     32 H12         4.6170   14.3595  -41.8984 H         1 <1>         0.0347 
     33 H13         3.4246   13.5182  -42.9408 H         1 <1>         0.0347 
@<TRIPOS>BOND
     1    2    1 2    
     2    1    3 2    
     3    1    4 1    
     4    4    5 ar   
     5    5    6 ar   
     6    6    7 ar   
     7    7    8 ar   
     8    8    9 ar   
     9    4    9 ar   
    10    7   10 1    
    11   10   11 1    
    12   10   12 2    
    13   12   13 1    
    14   13   14 1    
    15   14   15 1    
    16   15   16 2    
    17   16   17 1    
    18   17   18 1    
    19   14   18 1    
    20   16   19 1    
    21   17   20 2    
    22    5   21 1    
    23    6   22 1    
    24    8   23 1    
    25    9   24 1    
    26   11   25 1    
    27   11   26 1    
    28   11   27 1    
    29   12   28 1    
    30   14   29 1    
    31   15   30 1    
    32   19   31 1    
    33   19   32 1    
    34   19   33 1    
@<TRIPOS>SUBSTRUCTURE
     1 ****        2 TEMP              0 ****  ****    0 ROOT 
@<TRIPOS>NORMAL
@<TRIPOS>FF_PBC
FORCE_FIELD_SETUP_FEATURE Force Field Setup information
v1.0  0 0.000000 0.000000 0.000000 0.000000 0.000000 0.000000 NONE 0 0 0 0 1 0 0 0 0 0 0 0 0
