#	Name:			PISM00668
#	Creating user name:	baoopengkun
#	Creation time:		Sat Dec 08 16:51:43 2018

#	Modifying user name:	baoopengkun
#	Modification time:	Sat Dec 08 16:52:48 2018

@<TRIPOS>MOLECULE
PISM00668
   48    51     1     2     0
SMALL
GAST_HUCK


@<TRIPOS>ATOM
      1 C1        -10.3998   23.1833  -11.3552 C.ar      1 <1>         0.0705 
      2 C2        -11.7328   23.5892  -11.2450 C.ar      1 <1>        -0.0038 
      3 C3        -12.6321   22.8569  -10.4661 C.ar      1 <1>         0.0716 
      4 C4        -12.1918   21.7225   -9.7805 C.ar      1 <1>        -0.0183 
      5 C5        -10.8611   21.3119   -9.8971 C.ar      1 <1>        -0.0348 
      6 C6         -9.9684   22.0144  -10.7153 C.ar      1 <1>         0.0199 
      7 C7         -8.5354   21.4837  -10.8862 C.3       1 <1>         0.1912 
      8 C8         -7.6252   22.1130   -9.8018 C.3       1 <1>         0.1066 
      9 N9         -6.2573   21.6138   -9.7469 N.pl3     1 <1>        -0.1816 
     10 N10        -5.3549   21.8697   -8.7579 N.2       1 <1>        -0.1908 
     11 C11        -4.2257   21.2931   -8.9408 C.2       1 <1>         0.0618 
     12 N12        -4.4730   20.6075  -10.1787 N.2       1 <1>        -0.2870 
     13 C13        -5.6420   20.8286  -10.5788 C.2       1 <1>         0.1270 
     14 O14        -8.0178   21.6778  -12.2082 O.3       1 <1>        -0.3824 
     15 C15        -8.7031   20.7534  -13.0558 C.3       1 <1>         0.0669 
     16 C16        -8.8439   19.5280  -12.1191 C.3       1 <1>         0.0997 
     17 O17        -8.5250   20.0512  -10.8173 O.3       1 <1>        -0.3768 
     18 C18       -10.2452   18.8680  -12.1835 C.3       1 <1>         0.0952 
     19 O19       -10.2879   17.7762  -11.2491 O.3       1 <1>        -0.3192 
     20 C20       -11.4452   17.0155  -11.0261 C.ar      1 <1>         0.1202 
     21 C21       -12.6161   17.1987  -11.7747 C.ar      1 <1>        -0.0415 
     22 C22       -13.7482   16.4210  -11.5114 C.ar      1 <1>        -0.0819 
     23 C23       -13.7183   15.4507  -10.5065 C.ar      1 <1>        -0.0819 
     24 C24       -12.5511   15.2600   -9.7632 C.ar      1 <1>        -0.0411 
     25 C25       -11.4232   16.0439  -10.0192 C.ar      1 <1>         0.1290 
     26 O26       -10.2677   15.8539   -9.2641 O.3       1 <1>        -0.2300 
     27 C27       -10.2459   16.6847   -8.0968 C.3       1 <1>         0.5442 
     28 F28       -11.2933   16.3701   -7.2869 F         1 <1>        -0.1403 
     29 F29       -10.3216   18.0004   -8.4338 F         1 <1>        -0.1403 
     30 F30        -9.0844   16.4614   -7.4269 F         1 <1>        -0.1403 
     31 Cl31      -14.3056   23.3605  -10.3478 Cl        1 <1>        -0.0423 
     32 Cl32       -9.2936   24.1654  -12.2959 Cl        1 <1>        -0.0423 
     33 H2        -12.0715   24.4785  -11.7657 H         1 <1>         0.0708 
     34 H3        -12.8835   21.1619   -9.1596 H         1 <1>         0.0703 
     35 H4        -10.5230   20.4381   -9.3485 H         1 <1>         0.0847 
     36 H5         -8.0724   21.9219   -8.8150 H         1 <1>         0.0592 
     37 H6         -7.5781   23.1995   -9.9648 H         1 <1>         0.0592 
     38 H7         -3.3270   21.3163   -8.3263 H         1 <1>         0.0863 
     39 H8         -6.0388   20.4002  -11.4967 H         1 <1>         0.1361 
     40 H9         -8.1288   20.5488  -13.9726 H         1 <1>         0.0575 
     41 H10        -9.6816   21.1765  -13.3326 H         1 <1>         0.0575 
     42 H11        -8.0778   18.7683  -12.3445 H         1 <1>         0.0635 
     43 H12       -10.4124   18.4988  -13.2078 H         1 <1>         0.0635 
     44 H13       -11.0147   19.6110  -11.9295 H         1 <1>         0.0635 
     45 H14       -12.6745   17.9358  -12.5661 H         1 <1>         0.0509 
     46 H15       -14.6552   16.5700  -12.0900 H         1 <1>         0.0495 
     47 H16       -14.5981   14.8470  -10.3044 H         1 <1>         0.0495 
     48 H17       -12.5167   14.5039   -8.9856 H         1 <1>         0.0509 
@<TRIPOS>BOND
     1    2    1 ar   
     2    2    3 ar   
     3    3    4 ar   
     4    4    5 ar   
     5    5    6 ar   
     6    1    6 ar   
     7    6    7 1    
     8    7    8 1    
     9    8    9 1    
    10    9   10 1    
    11   10   11 2    
    12   11   12 1    
    13   12   13 2    
    14    9   13 1    
    15    7   14 1    
    16   14   15 1    
    17   15   16 1    
    18   16   17 1    
    19    7   17 1    
    20   16   18 1    
    21   18   19 1    
    22   19   20 1    
    23   20   21 ar   
    24   21   22 ar   
    25   22   23 ar   
    26   23   24 ar   
    27   24   25 ar   
    28   20   25 ar   
    29   25   26 1    
    30   26   27 1    
    31   27   28 1    
    32   27   29 1    
    33   27   30 1    
    34    3   31 1    
    35    1   32 1    
    36    2   33 1    
    37    4   34 1    
    38    5   35 1    
    39    8   36 1    
    40    8   37 1    
    41   11   38 1    
    42   13   39 1    
    43   15   40 1    
    44   15   41 1    
    45   16   42 1    
    46   18   43 1    
    47   18   44 1    
    48   21   45 1    
    49   22   46 1    
    50   23   47 1    
    51   24   48 1    
@<TRIPOS>SUBSTRUCTURE
     1 ****        2 TEMP              0 ****  ****    0 ROOT 
@<TRIPOS>NORMAL
@<TRIPOS>FF_PBC
FORCE_FIELD_SETUP_FEATURE Force Field Setup information
v1.0  0 0.000000 0.000000 0.000000 0.000000 0.000000 0.000000 NONE 0 0 0 0 1 0 0 0 0 0 0 0 0
@<TRIPOS>RENDERING_ATTRS
ANTIALIASED_LINES 
*
