#	Name:			PISM00639
#	Creating user name:	baoopengkun
#	Creation time:		Fri Jan 25 19:46:58 2019

#	Modifying user name:	baoopengkun
#	Modification time:	Fri Jan 25 19:50:37 2019

@<TRIPOS>MOLECULE
PISM00639
   90    94     1     1     0
SMALL
GAST_HUCK


@<TRIPOS>ATOM
      1 C1          8.9738   -2.5744   -5.7300 C.3       1 <1>         0.0890 
      2 O2         10.8556   -3.0351   -6.9001 O.3       1 <1>        -0.3408 
      3 O3          8.5806   -3.1025   -7.0141 O.3       1 <1>        -0.3409 
      4 C4          9.7729   -3.4255   -7.7669 C.3       1 <1>         0.1911 
      5 C5          9.8592   -2.6319   -9.0990 C.3       1 <1>        -0.0082 
      6 C6          9.7929   -4.9523   -8.0830 C.3       1 <1>         0.0979 
      7 C7         10.3687   -3.1949   -5.5664 C.3       1 <1>         0.0906 
      8 O8          9.5463   -5.7942   -6.9382 O.3       1 <1>        -0.3897 
      9 C9         11.1981   -2.5068   -4.4649 C.3       1 <1>        -0.0024 
     10 C10        11.2710   -0.9549   -4.6086 C.3       1 <1>         0.0682 
     11 C11         9.8780   -0.2509   -4.7644 C.3       1 <1>        -0.0055 
     12 C12         9.0421   -1.0283   -5.8427 C.3       1 <1>        -0.0159 
     13 C13        10.0526    1.2270   -5.3321 C.3       1 <1>        -0.0276 
     14 C14        11.0804    2.2369   -4.7089 C.3       1 <1>        -0.0063 
     15 C15        12.4759    1.6101   -4.4084 C.3       1 <1>         0.0801 
     16 O16        12.5196    0.7676   -3.2553 O.3       1 <1>        -0.2763 
     17 C17        11.9996   -0.4575   -3.3670 C.2       1 <1>         0.2374 
     18 O18        12.1385   -1.1809   -2.3945 O.2       1 <1>        -0.3701 
     19 C19         8.6838    1.9371   -5.6078 C.3       1 <1>        -0.0487 
     20 C20         8.7290    3.4823   -5.4738 C.3       1 <1>        -0.0468 
     21 C21         9.2213    3.9709   -4.0638 C.3       1 <1>        -0.0257 
     22 C22        10.4669    3.1297   -3.5850 C.3       1 <1>        -0.0298 
     23 C23        11.4856    4.1682   -3.0258 C.3       1 <1>        -0.0491 
     24 C24        10.7137    5.4947   -2.8924 C.3       1 <1>        -0.0491 
     25 C25         9.7710    5.4463   -4.1209 C.3       1 <1>        -0.0304 
     26 C26         9.1229   -0.3379   -3.3949 C.3       1 <1>        -0.0568 
     27 C27         8.0847    3.8075   -2.9984 C.3       1 <1>        -0.0590 
     28 C28         8.8376    6.7143   -4.1871 C.3       1 <1>        -0.0120 
     29 C29         9.6747    8.0370   -4.4364 C.3       1 <1>         0.0841 
     30 C30         9.8941    8.9093   -3.1519 C.3       1 <1>         0.0841 
     31 C31        10.6665   10.2698   -3.3612 C.3       1 <1>        -0.0130 
     32 C32        12.2441   10.1965   -3.3705 C.3       1 <1>        -0.0417 
     33 C33        12.9017   11.5328   -3.8469 C.3       1 <1>        -0.0623 
     34 C34        12.8537    9.0728   -4.2559 C.3       1 <1>        -0.0623 
     35 C35         7.6983    6.5970   -5.2442 C.3       1 <1>        -0.0597 
     36 O36         9.0656    8.9436   -5.3834 O.3       1 <1>        -0.3890 
     37 O37         8.5716    9.1473   -2.6307 O.3       1 <1>        -0.3890 
     38 C38        10.2089   11.2725   -2.2508 C.3       1 <1>        -0.0597 
     39 H1          8.2824   -2.8884   -4.9309 H         1 <1>         0.0623 
     40 H2         10.7580   -2.9335   -9.6573 H         1 <1>         0.0282 
     41 H3          9.9182   -1.5487   -8.9352 H         1 <1>         0.0282 
     42 H4          8.9705   -2.8353   -9.7149 H         1 <1>         0.0282 
     43 H5         10.7771   -5.1960   -8.5162 H         1 <1>         0.0611 
     44 H6          9.0096   -5.1571   -8.8317 H         1 <1>         0.0611 
     45 H7         10.2920   -4.2656   -5.3186 H         1 <1>         0.0624 
     46 H8          9.5629   -6.7244   -7.1422 H         1 <1>         0.2096 
     47 H9         12.2176   -2.9276   -4.5000 H         1 <1>         0.0319 
     48 H10        10.7578   -2.8137   -3.5035 H         1 <1>         0.0319 
     49 H11        11.8560   -0.8149   -5.5289 H         1 <1>         0.0560 
     50 H12         9.4774   -0.8238   -6.8257 H         1 <1>         0.0298 
     51 H13         8.0000   -0.6741   -5.8727 H         1 <1>         0.0298 
     52 H14        10.5188    1.0904   -6.3253 H         1 <1>         0.0311 
     53 H15        11.3348    2.9760   -5.4919 H         1 <1>         0.0332 
     54 H16        13.1985    2.3886   -4.1308 H         1 <1>         0.0616 
     55 H17        12.9222    1.1443   -5.2991 H         1 <1>         0.0616 
     56 H18         7.8914    1.6074   -4.9315 H         1 <1>         0.0268 
     57 H19         8.3309    1.6884   -6.6253 H         1 <1>         0.0268 
     58 H20         7.7083    3.8351   -5.6773 H         1 <1>         0.0271 
     59 H21         9.3568    3.8694   -6.2921 H         1 <1>         0.0271 
     60 H22        10.1956    2.4590   -2.7581 H         1 <1>         0.0310 
     61 H23        12.2816    4.3885   -3.7554 H         1 <1>         0.0268 
     62 H24        11.9580    3.8560   -2.0786 H         1 <1>         0.0268 
     63 H25        11.4181    6.3346   -2.9070 H         1 <1>         0.0268 
     64 H26        10.1637    5.5442   -1.9418 H         1 <1>         0.0268 
     65 H27        10.4093    5.4890   -5.0191 H         1 <1>         0.0310 
     66 H28         8.0866    0.0164   -3.4312 H         1 <1>         0.0237 
     67 H29         9.6390    0.2283   -2.6111 H         1 <1>         0.0237 
     68 H30         9.0523   -1.3756   -3.0470 H         1 <1>         0.0237 
     69 H31         7.1929    4.3974   -3.2392 H         1 <1>         0.0235 
     70 H32         8.4079    4.1045   -1.9924 H         1 <1>         0.0235 
     71 H33         7.7659    2.7587   -2.9208 H         1 <1>         0.0235 
     72 H34         8.3213    6.7849   -3.2162 H         1 <1>         0.0327 
     73 H35        10.6381    7.7679   -4.8790 H         1 <1>         0.0622 
     74 H36        10.4107    8.3538   -2.3575 H         1 <1>         0.0622 
     75 H37        10.3450   10.7017   -4.3218 H         1 <1>         0.0326 
     76 H38        12.5866   10.0012   -2.3393 H         1 <1>         0.0299 
     77 H39        13.9967   11.4365   -3.9111 H         1 <1>         0.0232 
     78 H40        12.7219   12.3765   -3.1697 H         1 <1>         0.0232 
     79 H41        12.5274   11.7997   -4.8473 H         1 <1>         0.0232 
     80 H42        12.6255    8.0826   -3.8478 H         1 <1>         0.0232 
     81 H43        13.9530    9.1320   -4.2819 H         1 <1>         0.0232 
     82 H44        12.4892    9.1568   -5.2909 H         1 <1>         0.0232 
     83 H45         8.1148    6.3642   -6.2361 H         1 <1>         0.0233 
     84 H46         7.1208    7.5314   -5.3056 H         1 <1>         0.0233 
     85 H47         6.9556    5.8371   -4.9842 H         1 <1>         0.0233 
     86 H48         9.0464    8.6330   -6.2833 H         1 <1>         0.2099 
     87 H49         8.0137    9.5735   -3.2761 H         1 <1>         0.2099 
     88 H50         9.1250   11.4532   -2.2730 H         1 <1>         0.0233 
     89 H51        10.6610   12.2649   -2.3514 H         1 <1>         0.0233 
     90 H52        10.4711   10.8729   -1.2592 H         1 <1>         0.0233 
@<TRIPOS>BOND
     1   12    1 1    
     2    7    1 1    
     3    7    2 1    
     4    1    3 1    
     5    3    4 1    
     6    2    4 1    
     7    4    5 1    
     8    4    6 1    
     9    7    9 1    
    10    9   10 1    
    11   10   11 1    
    12   11   12 1    
    13    6    8 1    
    14   11   13 1    
    15   13   14 1    
    16   15   14 1    
    17   16   15 1    
    18   17   16 1    
    19   17   18 2    
    20   10   17 1    
    21   13   19 1    
    22   19   20 1    
    23   20   21 1    
    24   22   21 1    
    25   14   22 1    
    26   22   23 1    
    27   23   24 1    
    28   25   24 1    
    29   21   25 1    
    30   11   26 1    
    31   21   27 1    
    32   25   28 1    
    33   28   29 1    
    34   29   30 1    
    35   30   31 1    
    36   31   32 1    
    37   32   33 1    
    38   32   34 1    
    39   28   35 1    
    40   29   36 1    
    41   30   37 1    
    42   31   38 1    
    43    1   39 1    
    44    5   40 1    
    45    5   41 1    
    46    5   42 1    
    47    6   43 1    
    48    6   44 1    
    49    7   45 1    
    50    8   46 1    
    51    9   47 1    
    52    9   48 1    
    53   10   49 1    
    54   12   50 1    
    55   12   51 1    
    56   13   52 1    
    57   14   53 1    
    58   15   54 1    
    59   15   55 1    
    60   19   56 1    
    61   19   57 1    
    62   20   58 1    
    63   20   59 1    
    64   22   60 1    
    65   23   61 1    
    66   23   62 1    
    67   24   63 1    
    68   24   64 1    
    69   25   65 1    
    70   26   66 1    
    71   26   67 1    
    72   26   68 1    
    73   27   69 1    
    74   27   70 1    
    75   27   71 1    
    76   28   72 1    
    77   29   73 1    
    78   30   74 1    
    79   31   75 1    
    80   32   76 1    
    81   33   77 1    
    82   33   78 1    
    83   33   79 1    
    84   34   80 1    
    85   34   81 1    
    86   34   82 1    
    87   35   83 1    
    88   35   84 1    
    89   35   85 1    
    90   36   86 1    
    91   37   87 1    
    92   38   88 1    
    93   38   89 1    
    94   38   90 1    
@<TRIPOS>SUBSTRUCTURE
     1 ****        7 TEMP              0 ****  ****    0 ROOT 
@<TRIPOS>NORMAL
@<TRIPOS>FF_PBC
FORCE_FIELD_SETUP_FEATURE Force Field Setup information
v1.0  0 0.000000 0.000000 0.000000 0.000000 0.000000 0.000000 NONE 0 0 0 0 1 0 0 0 0 0 0 0 0
