#	Name:			PISM00248
#	Creating user name:	14062
#	Creation time:		Fri Jul 12 13:58:26 2019

#	Modifying user name:	14062
#	Modification time:	Fri Jul 12 13:59:16 2019

@<TRIPOS>MOLECULE
PISM00248
   30    31     1     2     0
SMALL
GAST_HUCK


@<TRIPOS>ATOM
      1 C1         -7.5099   -0.1248   -3.1619 C.3       1 BENZYL      0.1884 
      2 C1         -7.3425   -0.4083   -4.6786 C.3       1 BENZYL      0.0282 
      3 C2         -8.6757   -0.2585   -5.4263 C.ar      1 BENZYL     -0.0373 
      4 C3         -9.3782   -1.3817   -5.8756 C.ar      1 BENZYL     -0.0564 
      5 C4        -10.5974   -1.2304   -6.5414 C.ar      1 BENZYL     -0.0567 
      6 C5        -11.1283    0.0451   -6.7651 C.ar      1 BENZYL     -0.0222 
      7 C6        -10.4256    1.1741   -6.3243 C.ar      1 BENZYL     -0.0259 
      8 C7         -9.2016    1.0160   -5.6634 C.ar      1 BENZYL     -0.0547 
      9 C9         -6.1704   -0.1326   -2.4641 C.2       1 BENZYL      0.2647 
     10 O10        -5.1292   -0.3954   -3.0464 O.2       1 BENZYL     -0.3674 
     11 O11        -6.1882    0.1762   -1.1660 O.3       1 BENZYL     -0.2906 
     12 C12       -10.9538    2.4514   -6.5490 C.ar      1 BENZYL     -0.0578 
     13 O13        -8.3596   -1.1109   -2.5445 O.3       1 BENZYL     -0.2747 
     14 C14       -12.1759    2.6041   -7.2094 C.ar      1 BENZYL     -0.0637 
     15 C15       -12.8766    1.4779   -7.6477 C.ar      1 BENZYL     -0.0634 
     16 C16       -12.3534    0.2014   -7.4248 C.ar      1 BENZYL     -0.0568 
     17 H1         -7.9458    0.8740   -3.0072 H         1 BENZYL      0.0901 
     18 H2         -6.6229    0.3015   -5.1173 H         1 BENZYL      0.0480 
     19 H3         -6.9338   -1.4230   -4.8043 H         1 BENZYL      0.0480 
     20 H4         -8.9835   -2.3786   -5.7074 H         1 BENZYL      0.0586 
     21 H5        -11.1276   -2.1144   -6.8822 H         1 BENZYL      0.0620 
     22 N22        -9.6656   -1.0830   -2.9960 N.3       1 BENZYL     -0.2115 
     23 H6         -8.6504    1.8888   -5.3289 H         1 BENZYL      0.0531 
     24 H7         -5.3140    0.1421   -0.7935 H         1 BENZYL      0.2540 
     25 H8        -10.4203    3.3353   -6.2130 H         1 BENZYL      0.0603 
     26 H9        -12.5810    3.5967   -7.3817 H         1 BENZYL      0.0611 
     27 H10       -13.8265    1.5948   -8.1607 H         1 BENZYL      0.0598 
     28 H11       -12.9083   -0.6659   -7.7692 H         1 BENZYL      0.0619 
     29 H12       -10.2666   -0.4580   -2.3503 H         1 BENZYL      0.1502 
     30 H13       -10.0697   -2.0851   -2.9997 H         1 BENZYL      0.1502 
@<TRIPOS>BOND
     1    2    3 1    
     2    3    4 ar   
     3    3    8 ar   
     4    8    7 ar   
     5    7    6 ar   
     6    6    5 ar   
     7    5    4 ar   
     8    2    1 1    
     9    1    9 1    
    10    9   10 2    
    11    9   11 1    
    12    7   12 ar   
    13    1   13 1    
    14   12   14 ar   
    15   14   15 ar   
    16   15   16 ar   
    17    6   16 ar   
    18    1   17 1    
    19    2   18 1    
    20    2   19 1    
    21    4   20 1    
    22   13   22 1    
    23    5   21 1    
    24    8   23 1    
    25   11   24 1    
    26   12   25 1    
    27   14   26 1    
    28   15   27 1    
    29   16   28 1    
    30   22   29 1    
    31   22   30 1    
@<TRIPOS>SUBSTRUCTURE
     1 BENZYL      2 PERM              0 ****  ****    0 ROOT 
@<TRIPOS>NORMAL
@<TRIPOS>FF_PBC
FORCE_FIELD_SETUP_FEATURE Force Field Setup information
v1.0  0 0.000000 0.000000 0.000000 0.000000 0.000000 0.000000 NONE 0 0 0 0 1 0 0 0 0 0 0 0 0
@<TRIPOS>RENDERING_ATTRS
ANTIALIASED_LINES 
*
