#	Name:			PISM00428
#	Creating user name:	malab
#	Creation time:		Tue Apr 09 23:41:05 2019

#	Modifying user name:	malab
#	Modification time:	Tue Apr 09 23:44:23 2019

@<TRIPOS>MOLECULE
PISM00428
   42    42     1     2     0
SMALL
USER_CHARGES


@<TRIPOS>ATOM
      1 C1         -8.5623   -4.1149   -4.9274 C.3       1 <1>         0.0000 
      2 C2         -8.0609   -5.5916   -4.8543 C.3       1 <1>         0.0000 
      3 C3         -6.5857   -5.6878   -5.1205 C.2       1 <1>         0.0000 
      4 C4         -5.7089   -4.5334   -4.8788 C.2       1 <1>         0.0000 
      5 C5         -6.1768   -3.3829   -4.3763 C.2       1 <1>         0.0000 
      6 C6         -7.6501   -3.2093   -4.0279 C.3       1 <1>         0.0000 
      7 O7         -6.1100   -6.7299   -5.5427 O.2       1 <1>         0.0000 
      8 C8         -5.2483   -2.2156   -4.1153 C.3       1 <1>         0.0000 
      9 C9        -10.0622   -4.1271   -4.4641 C.3       1 <1>         0.0000 
     10 C10        -8.4642   -3.6380   -6.4116 C.3       1 <1>         0.0000 
     11 H3         -8.5919   -6.2019   -5.6027 H         1 <1>         0.0000 
     12 H4         -8.2500   -6.0410   -3.8676 H         1 <1>         0.0000 
     13 H5         -4.6530   -4.6524   -5.1231 H         1 <1>         0.0000 
     14 O14        -8.0658   -1.8466   -4.2469 O.3       1 <1>         0.0000 
     15 C15        -7.7679   -3.6097   -2.5706 C.2       1 <1>         0.0000 
     16 H8         -5.3633   -1.8720   -3.0761 H         1 <1>         0.0000 
     17 H9         -5.4812   -1.3885   -4.8027 H         1 <1>         0.0000 
     18 H10        -4.1903   -2.4816   -4.2607 H         1 <1>         0.0000 
     19 C19        -8.4747   -2.9443   -1.6478 C.2       1 <1>         0.0000 
     20 C20        -8.5571   -3.3996   -0.2454 C.2       1 <1>         0.0000 
     21 C21        -8.3568   -2.5614    0.7828 C.2       1 <1>         0.0000 
     22 C22        -7.9893   -1.1337    0.6878 C.2       1 <1>         0.0000 
     23 C23        -8.8874   -4.8502    0.0218 C.3       1 <1>         0.0000 
     24 O24        -8.0495   -0.4442    1.6954 O.2       1 <1>         0.0000 
     25 O25        -7.5856   -0.6159   -0.4776 O.3       1 <1>         0.0000 
     26 H26       -10.6064   -4.8693   -5.0719 H         1 <1>         0.0000 
     27 C27       -10.8631   -2.8002   -4.5834 C.3       1 <1>         0.0000 
     28 H28       -10.1242   -4.4635   -3.4169 H         1 <1>         0.0000 
     29 H6         -7.4464   -3.7628   -6.8087 H         1 <1>         0.0000 
     30 H7         -8.7235   -2.5755   -6.5197 H         1 <1>         0.0000 
     31 H11        -9.1464   -4.2201   -7.0500 H         1 <1>         0.0000 
     32 H12        -7.6369   -1.2001   -3.6981 H         1 <1>         0.0000 
     33 H13        -7.2370   -4.5060   -2.2481 H         1 <1>         0.0000 
     34 H14        -9.0251   -2.0406   -1.9016 H         1 <1>         0.0000 
     35 H15        -8.4617   -2.9536    1.7953 H         1 <1>         0.0000 
     36 H16        -9.2855   -5.3404   -0.8798 H         1 <1>         0.0000 
     37 H17        -9.6452   -4.9375    0.8153 H         1 <1>         0.0000 
     38 H18        -7.9765   -5.3800    0.3381 H         1 <1>         0.0000 
     39 H19        -7.3672    0.3091   -0.4316 H         1 <1>         0.0000 
     40 H1        -11.9007   -2.9750   -4.2557 H         1 <1>         0.0000 
     41 H2        -10.9027   -2.4416   -5.6219 H         1 <1>         0.0000 
     42 H20       -10.4510   -2.0068   -3.9468 H         1 <1>         0.0000 
@<TRIPOS>BOND
     1    2    1 1    
     2    2    3 1    
     3    3    4 1    
     4    4    5 2    
     5    5    6 1    
     6    1    6 1    
     7    3    7 2    
     8    5    8 1    
     9    1    9 1    
    10    1   10 1    
    11    2   11 1    
    12    2   12 1    
    13    4   13 1    
    14    6   14 1    
    15    6   15 1    
    16    8   16 1    
    17    8   17 1    
    18    8   18 1    
    19   15   19 2    
    20   19   20 1    
    21   20   21 2    
    22   21   22 1    
    23   20   23 1    
    24   22   24 2    
    25   22   25 1    
    26    9   26 1    
    27    9   27 1    
    28    9   28 1    
    29   10   29 1    
    30   10   30 1    
    31   10   31 1    
    32   14   32 1    
    33   15   33 1    
    34   19   34 1    
    35   21   35 1    
    36   23   36 1    
    37   23   37 1    
    38   23   38 1    
    39   25   39 1    
    40   27   40 1    
    41   27   41 1    
    42   27   42 1    
@<TRIPOS>SUBSTRUCTURE
     1 ****        2 TEMP              0 ****  ****    0 ROOT 
@<TRIPOS>NORMAL
@<TRIPOS>FF_PBC
FORCE_FIELD_SETUP_FEATURE Force Field Setup information
v1.0  0 0.000000 0.000000 0.000000 0.000000 0.000000 0.000000 NONE 0 0 0 0 0 0 0 0 0 0 0 0 0
@<TRIPOS>RENDERING_ATTRS
ANTIALIASED_LINES 
*
