#	Name:			PISM00420
#	Creating user name:	malab
#	Creation time:		Tue Apr 09 23:41:05 2019

#	Modifying user name:	malab
#	Modification time:	Tue Apr 09 23:51:45 2019

@<TRIPOS>MOLECULE
PISM00420
   42    42     1     2     0
SMALL
USER_CHARGES


@<TRIPOS>ATOM
      1 C1         -8.6442   -4.6131   -5.6762 C.3       1 <1>         0.0000 
      2 C2         -7.9648   -6.0070   -5.5815 C.3       1 <1>         0.0000 
      3 C3         -6.4714   -5.8512   -5.5639 C.2       1 <1>         0.0000 
      4 C4         -5.8327   -4.6013   -5.1110 C.2       1 <1>         0.0000 
      5 C5         -6.5621   -3.5782   -4.6322 C.2       1 <1>         0.0000 
      6 C6         -8.0813   -3.6806   -4.5551 C.3       1 <1>         0.0000 
      7 O7         -5.7755   -6.7823   -5.9367 O.2       1 <1>         0.0000 
      8 C8         -5.9523   -2.2854   -4.1276 C.3       1 <1>         0.0000 
      9 C9        -10.1850   -4.7971   -5.5251 C.3       1 <1>         0.0000 
     10 C10        -8.3620   -3.9845   -7.0773 C.3       1 <1>         0.0000 
     11 N11        -4.3933   -4.5641   -5.2201 N.2       1 <1>         0.0000 
     12 H1         -8.2611   -6.6221   -6.4461 H         1 <1>         0.0000 
     13 H2         -8.2620   -6.5464   -4.6694 H         1 <1>         0.0000 
     14 O14        -8.7194   -2.4019   -4.7567 O.3       1 <1>         0.0000 
     15 C15        -8.3991   -4.2383   -3.1816 C.2       1 <1>         0.0000 
     16 H3         -4.8598   -2.2990   -4.0357 H         1 <1>         0.0000 
     17 H4         -6.3487   -2.0628   -3.1254 H         1 <1>         0.0000 
     18 H5         -6.2154   -1.4650   -4.8117 H         1 <1>         0.0000 
     19 C19        -9.4595   -3.8714   -2.4499 C.2       1 <1>         0.0000 
     20 C20        -9.7424   -4.4446   -1.1178 C.2       1 <1>         0.0000 
     21 C21       -10.1019   -3.6766   -0.0776 C.2       1 <1>         0.0000 
     22 C22       -10.2200   -2.2036   -0.0705 C.2       1 <1>         0.0000 
     23 C23        -9.6321   -5.9423   -0.9410 C.3       1 <1>         0.0000 
     24 O24       -10.7738   -1.6645    0.8765 O.2       1 <1>         0.0000 
     25 O25        -9.7157   -1.4799   -1.0762 O.3       1 <1>         0.0000 
     26 H6        -10.5771   -5.4200   -6.3438 H         1 <1>         0.0000 
     27 H7        -10.7019   -3.8262   -5.5568 H         1 <1>         0.0000 
     28 H8        -10.4412   -5.2941   -4.5778 H         1 <1>         0.0000 
     29 H9         -7.2876   -3.8192   -7.2435 H         1 <1>         0.0000 
     30 H10        -8.8734   -3.0160   -7.1837 H         1 <1>         0.0000 
     31 H11        -8.7278   -4.6447   -7.8785 H         1 <1>         0.0000 
     32 H12        -8.5396   -1.7530   -4.0860 H         1 <1>         0.0000 
     33 H13        -7.7218   -4.9857   -2.7660 H         1 <1>         0.0000 
     34 H14       -10.1618   -3.1325   -2.8330 H         1 <1>         0.0000 
     35 H15       -10.3268   -4.1660    0.8710 H         1 <1>         0.0000 
     36 H16        -9.6591   -6.4588   -1.9128 H         1 <1>         0.0000 
     37 H17       -10.4634   -6.3299   -0.3323 H         1 <1>         0.0000 
     38 H18        -8.6820   -6.1807   -0.4398 H         1 <1>         0.0000 
     39 H19        -9.8405   -0.5421   -0.9742 H         1 <1>         0.0000 
     40 N40        -3.8545   -5.0624   -6.1569 N.1       1 <1>         0.0000 
     41 N41        -3.3157   -5.5606   -7.0937 N.2       1 <1>         0.0000 
     42 H20        -2.3165   -5.4821   -7.2010 H         1 <1>         0.0000 
@<TRIPOS>BOND
     1    2    1 1    
     2    2    3 1    
     3    3    4 1    
     4    4    5 2    
     5    5    6 1    
     6    1    6 1    
     7    3    7 2    
     8    5    8 1    
     9    1    9 1    
    10    1   10 1    
    11    4   11 1    
    12    2   12 1    
    13    2   13 1    
    14    6   14 1    
    15    6   15 1    
    16    8   16 1    
    17    8   17 1    
    18    8   18 1    
    19   15   19 2    
    20   19   20 1    
    21   20   21 2    
    22   21   22 1    
    23   20   23 1    
    24   22   24 2    
    25   22   25 1    
    26    9   26 1    
    27    9   27 1    
    28    9   28 1    
    29   10   29 1    
    30   10   30 1    
    31   10   31 1    
    32   14   32 1    
    33   15   33 1    
    34   19   34 1    
    35   21   35 1    
    36   23   36 1    
    37   23   37 1    
    38   23   38 1    
    39   25   39 1    
    40   11   40 2    
    41   40   41 2    
    42   41   42 1    
@<TRIPOS>SUBSTRUCTURE
     1 ****        2 TEMP              0 ****  ****    0 ROOT 
@<TRIPOS>NORMAL
@<TRIPOS>FF_PBC
FORCE_FIELD_SETUP_FEATURE Force Field Setup information
v1.0  0 0.000000 0.000000 0.000000 0.000000 0.000000 0.000000 NONE 0 0 0 0 0 0 0 0 0 0 0 0 0
@<TRIPOS>RENDERING_ATTRS
ANTIALIASED_LINES 
*
