#	Name:			PISM00074
#	Creating user name:	baoopengkun
#	Creation time:		Thu Dec 27 12:05:25 2018

#	Modifying user name:	baoopengkun
#	Modification time:	Thu Dec 27 12:07:27 2018

@<TRIPOS>MOLECULE
PISM00074
   50    52     1     1     0
SMALL
GAST_HUCK


@<TRIPOS>ATOM
      1 C1        -15.9788   24.2220   -1.1713 C.3       1 <1>        -0.0475 
      2 C2        -15.7081   22.6955   -1.1173 C.3       1 <1>         0.0398 
      3 C3        -15.4793   22.0868   -2.4823 C.2       1 <1>         0.2002 
      4 O4        -15.4991   22.8199   -3.4572 O.2       1 <1>        -0.3795 
      5 N5        -15.2590   20.8002   -2.5614 N.pl3     1 <1>        -0.2421 
      6 C6        -15.0524   20.1740   -3.7467 C.ar      1 <1>         0.0515 
      7 C7        -15.8660   20.4273   -4.8577 C.ar      1 <1>        -0.0515 
      8 C8        -15.6177   19.7865   -6.0750 C.ar      1 <1>        -0.0815 
      9 C9        -14.5849   18.8505   -6.1747 C.ar      1 <1>        -0.0505 
     10 C10       -13.7930   18.5594   -5.0602 C.ar      1 <1>         0.0558 
     11 C11       -14.0129   19.2445   -3.8604 C.ar      1 <1>        -0.0179 
     12 N12       -12.8135   17.6287   -5.1600 N.pl3     1 <1>        -0.2370 
     13 C13       -12.7904   16.5534   -4.4090 C.2       1 <1>         0.1865 
     14 S14       -14.0632   16.2985   -3.2793 S.2       1 <1>        -0.2688 
     15 N15       -11.7820   15.6501   -4.5358 N.am      1 <1>        -0.1915 
     16 C16       -11.6117   14.5082   -3.8239 C.2       1 <1>         0.2414 
     17 O17       -12.3475   14.1818   -2.9090 O.2       1 <1>        -0.3697 
     18 C18       -10.4665   13.5579   -4.1203 C.ar      1 <1>         0.0570 
     19 C19        -9.9687   13.3727   -5.4165 C.ar      1 <1>        -0.0412 
     20 C20        -8.8703   12.5373   -5.6414 C.ar      1 <1>        -0.0488 
     21 C21        -8.2923   11.8327   -4.5817 C.ar      1 <1>        -0.0140 
     22 C22        -8.8165   11.9748   -3.2940 C.ar      1 <1>        -0.0488 
     23 C23        -9.8944   12.8352   -3.0666 C.ar      1 <1>        -0.0412 
     24 C24        -7.1323   10.9386   -4.8217 C.ar      1 <1>        -0.0153 
     25 C25        -7.2204    9.9137   -5.7694 C.ar      1 <1>        -0.0530 
     26 C26        -6.1268    9.0733   -5.9982 C.ar      1 <1>        -0.0605 
     27 C27        -4.9447    9.2513   -5.2736 C.ar      1 <1>        -0.0611 
     28 C28        -4.8558   10.2727   -4.3234 C.ar      1 <1>        -0.0605 
     29 C29        -5.9473   11.1174   -4.1007 C.ar      1 <1>        -0.0530 
     30 H1        -15.1198   24.7461   -1.6193 H         1 <1>         0.0255 
     31 H2        -16.1417   24.6176   -0.1563 H         1 <1>         0.0255 
     32 H3        -16.8749   24.4285   -1.7775 H         1 <1>         0.0255 
     33 H4        -16.5711   22.1942   -0.6509 H         1 <1>         0.0508 
     34 H5        -14.8161   22.5105   -0.4979 H         1 <1>         0.0508 
     35 H6        -15.2188   20.2380   -1.6983 H         1 <1>         0.2106 
     36 H7        -16.7013   21.1156   -4.7826 H         1 <1>         0.0435 
     37 H8        -16.2301   20.0133   -6.9425 H         1 <1>         0.0558 
     38 H9        -14.3999   18.3457   -7.1174 H         1 <1>         0.0436 
     39 H10       -13.3649   19.0586   -3.0105 H         1 <1>         0.0439 
     40 H11       -12.0852   17.7829   -5.8711 H         1 <1>         0.2183 
     41 H12       -11.0743   15.8482   -5.2063 H         1 <1>         0.2371 
     42 H13       -10.4326   13.8629   -6.2655 H         1 <1>         0.0668 
     43 H14        -8.4658   12.4345   -6.6438 H         1 <1>         0.0633 
     44 H15        -8.3873   11.4157   -2.4682 H         1 <1>         0.0633 
     45 H16       -10.2859   12.9418   -2.0594 H         1 <1>         0.0668 
     46 H17        -8.1395    9.7671   -6.3280 H         1 <1>         0.0629 
     47 H18        -6.1959    8.2817   -6.7382 H         1 <1>         0.0619 
     48 H19        -4.0964    8.5966   -5.4486 H         1 <1>         0.0622 
     49 H20        -3.9386   10.4103   -3.7587 H         1 <1>         0.0619 
     50 H21        -5.8720   11.9143   -3.3675 H         1 <1>         0.0629 
@<TRIPOS>BOND
     1    2    1 1    
     2    2    3 1    
     3    3    4 2    
     4    3    5 1    
     5    5    6 1    
     6    6    7 ar   
     7    7    8 ar   
     8    8    9 ar   
     9    9   10 ar   
    10   10   11 ar   
    11    6   11 ar   
    12   10   12 1    
    13   12   13 1    
    14   13   14 2    
    15   13   15 am   
    16   15   16 am   
    17   16   17 2    
    18   16   18 1    
    19   18   19 ar   
    20   19   20 ar   
    21   20   21 ar   
    22   21   22 ar   
    23   22   23 ar   
    24   18   23 ar   
    25   21   24 1    
    26   24   25 ar   
    27   25   26 ar   
    28   26   27 ar   
    29   27   28 ar   
    30   28   29 ar   
    31   24   29 ar   
    32    1   30 1    
    33    1   31 1    
    34    1   32 1    
    35    2   33 1    
    36    2   34 1    
    37    5   35 1    
    38    7   36 1    
    39    8   37 1    
    40    9   38 1    
    41   11   39 1    
    42   12   40 1    
    43   15   41 1    
    44   19   42 1    
    45   20   43 1    
    46   22   44 1    
    47   23   45 1    
    48   25   46 1    
    49   26   47 1    
    50   27   48 1    
    51   28   49 1    
    52   29   50 1    
@<TRIPOS>SUBSTRUCTURE
     1 ****        2 TEMP              0 ****  ****    0 ROOT 
@<TRIPOS>NORMAL
@<TRIPOS>FF_PBC
FORCE_FIELD_SETUP_FEATURE Force Field Setup information
v1.0  0 0.000000 0.000000 0.000000 0.000000 0.000000 0.000000 NONE 0 0 0 0 1 0 0 0 0 0 0 0 0
