#	Name:			PISM01153
#	Creating user name:	baoopengkun
#	Creation time:		Tue Dec 18 15:50:24 2018

#	Modifying user name:	baoopengkun
#	Modification time:	Tue Dec 18 15:51:42 2018

@<TRIPOS>MOLECULE
PISM01153
   43    44     1     1     0
SMALL
GAST_HUCK


@<TRIPOS>ATOM
      1 C1          5.8108    9.5817    7.6830 C.3       1 <1>        -0.0464 
      2 C2          5.5925    8.7315    6.4026 C.3       1 <1>         0.0303 
      3 C3          5.8036    7.2106    6.6733 C.3       1 <1>        -0.0318 
      4 C4          4.8567    6.3180    5.8150 C.3       1 <1>        -0.0391 
      5 C5          5.3743    4.8547    5.7593 C.3       1 <1>        -0.0621 
      6 C6          4.6901    6.9145    4.3887 C.3       1 <1>        -0.0291 
      7 C7          3.9977    8.3123    4.4379 C.3       1 <1>         0.0589 
      8 C8          4.2379    8.9585    5.7814 C.2       1 <1>         0.1132 
      9 O9          3.3793    9.6262    6.3349 O.2       1 <1>        -0.3909 
     10 C10         2.4822    8.2990    4.0566 C.3       1 <1>         0.0741 
     11 O11         2.2973    7.8114    2.7140 O.3       1 <1>        -0.3891 
     12 C12         1.6060    7.4110    4.9849 C.3       1 <1>        -0.0174 
     13 C13         0.0911    7.4052    4.6134 C.3       1 <1>        -0.0039 
     14 C14        -0.5882    8.7901    4.7894 C.3       1 <1>         0.0475 
     15 C15        -2.0703    8.6925    4.5358 C.2       1 <1>         0.2049 
     16 N16        -2.7152    7.5305    4.7534 N.am      1 <1>        -0.1997 
     17 C17        -2.1379    6.3959    5.1904 C.2       1 <1>         0.2049 
     18 C18        -0.6677    6.3914    5.5113 C.3       1 <1>         0.0475 
     19 O19        -2.6675    9.6772    4.1350 O.2       1 <1>        -0.3862 
     20 O20        -2.7828    5.3720    5.3398 O.2       1 <1>        -0.3862 
     21 H1          5.0669    9.3173    8.4505 H         1 <1>         0.0257 
     22 H2          5.7060   10.6532    7.4506 H         1 <1>         0.0257 
     23 H3          6.8190    9.4061    8.0897 H         1 <1>         0.0257 
     24 H4          6.3235    9.0714    5.6481 H         1 <1>         0.0527 
     25 H5          5.6165    6.9743    7.7340 H         1 <1>         0.0295 
     26 H6          6.8578    6.9615    6.4669 H         1 <1>         0.0295 
     27 H7          3.8703    6.2979    6.3074 H         1 <1>         0.0301 
     28 H8          5.4952    4.4538    6.7779 H         1 <1>         0.0233 
     29 H9          6.3462    4.8066    5.2447 H         1 <1>         0.0233 
     30 H10         4.6603    4.2153    5.2169 H         1 <1>         0.0233 
     31 H11         4.1292    6.2321    3.7311 H         1 <1>         0.0296 
     32 H12         5.7039    7.0116    3.9651 H         1 <1>         0.0296 
     33 H13         4.4871    8.9687    3.6984 H         1 <1>         0.0555 
     34 H14         2.1260    9.3415    4.1174 H         1 <1>         0.0622 
     35 H15         2.7425    8.3294    2.0504 H         1 <1>         0.2100 
     36 H16         1.7200    7.7258    6.0336 H         1 <1>         0.0297 
     37 H17         1.9602    6.3736    4.8927 H         1 <1>         0.0297 
     38 H18        -0.0251    7.0872    3.5622 H         1 <1>         0.0351 
     39 H19        -0.1829    9.5206    4.0739 H         1 <1>         0.0512 
     40 H20        -0.4349    9.1737    5.8096 H         1 <1>         0.0512 
     41 H21        -3.6968    7.5053    4.5656 H         1 <1>         0.2256 
     42 H22        -0.2725    5.3743    5.3578 H         1 <1>         0.0512 
     43 H23        -0.5546    6.6512    6.5749 H         1 <1>         0.0512 
@<TRIPOS>BOND
     1    2    1 1    
     2    2    3 1    
     3    3    4 1    
     4    4    5 1    
     5    4    6 1    
     6    6    7 1    
     7    7    8 1    
     8    2    8 1    
     9    8    9 2    
    10    7   10 1    
    11   10   11 1    
    12   10   12 1    
    13   12   13 1    
    14   13   14 1    
    15   14   15 1    
    16   15   16 am   
    17   16   17 am   
    18   17   18 1    
    19   13   18 1    
    20   15   19 2    
    21   17   20 2    
    22    1   21 1    
    23    1   22 1    
    24    1   23 1    
    25    2   24 1    
    26    3   25 1    
    27    3   26 1    
    28    4   27 1    
    29    5   28 1    
    30    5   29 1    
    31    5   30 1    
    32    6   31 1    
    33    6   32 1    
    34    7   33 1    
    35   10   34 1    
    36   11   35 1    
    37   12   36 1    
    38   12   37 1    
    39   13   38 1    
    40   14   39 1    
    41   14   40 1    
    42   16   41 1    
    43   18   42 1    
    44   18   43 1    
@<TRIPOS>SUBSTRUCTURE
     1 ****        2 TEMP              0 ****  ****    0 ROOT 
@<TRIPOS>NORMAL
@<TRIPOS>FF_PBC
FORCE_FIELD_SETUP_FEATURE Force Field Setup information
v1.0  0 0.000000 0.000000 0.000000 0.000000 0.000000 0.000000 NONE 0 0 0 0 1 0 0 0 0 0 0 0 0
