#	Name:			PISM01082
#	Creating user name:	Qinrunwen
#	Creation time:		Mon Apr 01 10:21:51 2019

#	Modifying user name:	Qinrunwen
#	Modification time:	Mon Apr 01 10:25:48 2019

@<TRIPOS>MOLECULE
PISM01082
   54    55     1     1     0
SMALL
GAST_HUCK


@<TRIPOS>ATOM
      1 C1         -8.9348   39.2816   14.0825 C.ar      1 <1>        -0.0488 
      2 C2         -9.2635   40.4033   14.8474 C.ar      1 <1>        -0.0589 
      3 C3         -9.4320   41.6503   14.2397 C.ar      1 <1>        -0.0593 
      4 C4         -9.2731   41.7678   12.8574 C.ar      1 <1>        -0.0445 
      5 C5         -8.9324   40.6460   12.0954 C.ar      1 <1>         0.0372 
      6 C6         -8.7133   39.4013   12.7038 C.ar      1 <1>         0.0158 
      7 N7         -8.8236   40.7986   10.7601 N.ar      1 <1>        -0.2729 
      8 C8         -8.4564   39.7741    9.9694 C.ar      1 <1>         0.1712 
      9 C9         -8.1748   38.5247   10.5221 C.ar      1 <1>         0.0220 
     10 C10        -8.2827   38.3317   11.9029 C.ar      1 <1>         0.0727 
     11 O11        -8.3481   39.9626    8.5933 O.3       1 <1>        -0.2942 
     12 C12        -9.5913   39.8529    7.8819 C.3       1 <1>         0.0758 
     13 C13        -9.2994   39.9739    6.3645 C.3       1 <1>        -0.0245 
     14 C14       -10.5717   39.7357    5.5066 C.3       1 <1>        -0.0534 
     15 C15       -10.2660   39.8481    3.9908 C.3       1 <1>        -0.0652 
     16 C16        -7.8950   36.9778   12.4697 C.2       1 <1>         0.2151 
     17 N17        -8.2744   35.8284   11.8628 N.am      1 <1>        -0.2831 
     18 C18        -7.7536   34.5517   12.3562 C.3       1 <1>         0.0433 
     19 C19        -8.3295   33.3080   11.6246 C.3       1 <1>         0.0190 
     20 N20        -7.6530   32.0530   12.0423 N.3       1 <1>        -0.3009 
     21 C21        -6.2541   31.8571   11.5833 C.3       1 <1>        -0.0039 
     22 C22        -8.0476   31.4263   13.3304 C.3       1 <1>        -0.0039 
     23 C23        -6.0237   30.3780   11.1791 C.3       1 <1>        -0.0524 
     24 C24        -8.9988   30.2317   13.0629 C.3       1 <1>        -0.0524 
     25 O25        -7.2076   36.9516   13.4766 O.2       1 <1>        -0.3786 
     26 H1         -8.8564   38.3244   14.5871 H         1 <1>         0.0643 
     27 H2         -9.3901   40.3108   15.9229 H         1 <1>         0.0619 
     28 H3         -9.6878   42.5249   14.8338 H         1 <1>         0.0641 
     29 H4         -9.4127   42.7284   12.3724 H         1 <1>         0.0617 
     30 H5         -7.8589   37.7172    9.8689 H         1 <1>         0.0730 
     31 H6        -10.2776   40.6527    8.2056 H         1 <1>         0.0623 
     32 H7        -10.0569   38.8745    8.0883 H         1 <1>         0.0623 
     33 H8         -8.5330   39.2283    6.0970 H         1 <1>         0.0292 
     34 H9         -8.8898   40.9759    6.1577 H         1 <1>         0.0292 
     35 H10       -11.3434   40.4758    5.7775 H         1 <1>         0.0263 
     36 H11       -10.9708   38.7287    5.7135 H         1 <1>         0.0263 
     37 H12        -9.8639   40.8456    3.7536 H         1 <1>         0.0230 
     38 H13       -11.1854   39.6920    3.4041 H         1 <1>         0.0230 
     39 H14        -9.5266   39.0884    3.6895 H         1 <1>         0.0230 
     40 H15        -8.8811   35.8282   11.0671 H         1 <1>         0.1847 
     41 H16        -7.9542   34.4565   13.4358 H         1 <1>         0.0532 
     42 H17        -6.6609   34.5618   12.2125 H         1 <1>         0.0532 
     43 H18        -8.1970   33.4358   10.5385 H         1 <1>         0.0446 
     44 H19        -9.4114   33.2310   11.8123 H         1 <1>         0.0446 
     45 H20        -5.5479   32.1553   12.3740 H         1 <1>         0.0424 
     46 H21        -6.0353   32.4780   10.6983 H         1 <1>         0.0424 
     47 H22        -8.5554   32.1452   13.9927 H         1 <1>         0.0424 
     48 H23        -7.1636   31.0597   13.8786 H         1 <1>         0.0424 
     49 H24        -5.0214   30.2579   10.7372 H         1 <1>         0.0242 
     50 H25        -6.7731   30.0703   10.4316 H         1 <1>         0.0242 
     51 H26        -6.1025   29.7069   12.0487 H         1 <1>         0.0242 
     52 H27        -9.1766   29.6716   13.9946 H         1 <1>         0.0242 
     53 H28        -9.9656   30.5869   12.6748 H         1 <1>         0.0242 
     54 H29        -8.5631   29.5429   12.3246 H         1 <1>         0.0242 
@<TRIPOS>BOND
     1    2    1 ar   
     2    2    3 ar   
     3    3    4 ar   
     4    4    5 ar   
     5    5    6 ar   
     6    1    6 ar   
     7    5    7 ar   
     8    7    8 ar   
     9    8    9 ar   
    10    9   10 ar   
    11    6   10 ar   
    12    8   11 1    
    13   11   12 1    
    14   12   13 1    
    15   13   14 1    
    16   14   15 1    
    17   10   16 1    
    18   16   17 am   
    19   17   18 1    
    20   18   19 1    
    21   19   20 1    
    22   20   21 1    
    23   20   22 1    
    24   21   23 1    
    25   22   24 1    
    26   16   25 2    
    27    1   26 1    
    28    2   27 1    
    29    3   28 1    
    30    4   29 1    
    31    9   30 1    
    32   12   31 1    
    33   12   32 1    
    34   13   33 1    
    35   13   34 1    
    36   14   35 1    
    37   14   36 1    
    38   15   37 1    
    39   15   38 1    
    40   15   39 1    
    41   17   40 1    
    42   18   41 1    
    43   18   42 1    
    44   19   43 1    
    45   19   44 1    
    46   21   45 1    
    47   21   46 1    
    48   22   47 1    
    49   22   48 1    
    50   23   49 1    
    51   23   50 1    
    52   23   51 1    
    53   24   52 1    
    54   24   53 1    
    55   24   54 1    
@<TRIPOS>SUBSTRUCTURE
     1 ****        2 TEMP              0 ****  ****    0 ROOT 
@<TRIPOS>NORMAL
@<TRIPOS>FF_PBC
FORCE_FIELD_SETUP_FEATURE Force Field Setup information
v1.0  0 0.000000 0.000000 0.000000 0.000000 0.000000 0.000000 NONE 0 0 0 0 1 0 0 0 0 0 0 0 0
