#	Name:			PISM01183
#	Creating user name:	baoopengkun
#	Creation time:		Tue Dec 18 21:50:39 2018

#	Modifying user name:	baoopengkun
#	Modification time:	Tue Dec 18 21:52:10 2018

@<TRIPOS>MOLECULE
PISM01183
   40    41     1     1     0
SMALL
GAST_HUCK


@<TRIPOS>ATOM
      1 C1         15.4236   28.4866  -31.9146 C.3       1 <1>        -0.0576 
      2 C2         15.0290   29.1203  -30.5428 C.3       1 <1>        -0.0085 
      3 C3         14.8930   30.6876  -30.6157 C.3       1 <1>         0.0945 
      4 O4         14.9313   31.2187  -29.2759 O.3       1 <1>        -0.3879 
      5 C5         13.7072   31.3374  -31.4102 C.3       1 <1>         0.1222 
      6 N6         13.4818   30.7271  -32.7117 N.pl3     1 <1>        -0.1706 
      7 C7         12.3439   31.4678  -30.6661 C.3       1 <1>         0.0165 
      8 C8         12.4052   32.4283  -29.4673 C.ar      1 <1>        -0.0396 
      9 C9         12.4960   33.8087  -29.6829 C.ar      1 <1>        -0.0596 
     10 C10        12.5840   34.6907  -28.6020 C.ar      1 <1>        -0.0546 
     11 C11        12.5666   34.1989  -27.2947 C.ar      1 <1>         0.0330 
     12 C12        12.4533   32.8246  -27.0718 C.ar      1 <1>        -0.0546 
     13 C13        12.3694   31.9438  -28.1540 C.ar      1 <1>        -0.0596 
     14 Cl14       12.6856   35.3023  -25.9394 Cl        1 <1>        -0.0771 
     15 C15        14.1672   30.8981  -33.8018 C.2       1 <1>         0.1284 
     16 N16        13.6445   30.2558  -34.7443 N.2       1 <1>        -0.2870 
     17 C17        12.4651   29.5696  -34.2938 C.2       1 <1>         0.0618 
     18 N18        12.4427   29.9171  -33.0609 N.2       1 <1>        -0.1897 
     19 C19        13.7387   28.4205  -30.0313 C.3       1 <1>        -0.0576 
     20 C20        16.1816   28.7874  -29.5403 C.3       1 <1>        -0.0576 
     21 H1         14.6066   28.5373  -32.6432 H         1 <1>         0.0236 
     22 H2         15.6645   27.4195  -31.7921 H         1 <1>         0.0236 
     23 H3         16.3063   28.9835  -32.3445 H         1 <1>         0.0236 
     24 H4         15.8218   31.0164  -31.1166 H         1 <1>         0.0633 
     25 H5         15.0441   32.1636  -29.2290 H         1 <1>         0.2099 
     26 H6         14.0056   32.3792  -31.6194 H         1 <1>         0.0729 
     27 H7         11.9489   30.4950  -30.3546 H         1 <1>         0.0459 
     28 H8         11.6075   31.8872  -31.3706 H         1 <1>         0.0459 
     29 H9         12.4980   34.2054  -30.6932 H         1 <1>         0.0557 
     30 H10        12.6652   35.7589  -28.7755 H         1 <1>         0.0606 
     31 H11        12.4312   32.4429  -26.0562 H         1 <1>         0.0606 
     32 H12        12.2796   30.8799  -27.9636 H         1 <1>         0.0557 
     33 H13        15.0646   31.5064  -33.9082 H         1 <1>         0.1361 
     34 H14        11.7777   28.9309  -34.8464 H         1 <1>         0.0864 
     35 H15        12.9404   28.4693  -30.7847 H         1 <1>         0.0236 
     36 H16        13.3935   28.8851  -29.0964 H         1 <1>         0.0236 
     37 H17        13.9291   27.3547  -29.8324 H         1 <1>         0.0236 
     38 H18        16.3722   27.7042  -29.4896 H         1 <1>         0.0236 
     39 H19        15.9337   29.1216  -28.5213 H         1 <1>         0.0236 
     40 H20        17.1171   29.2802  -29.8469 H         1 <1>         0.0236 
@<TRIPOS>BOND
     1    2    1 1    
     2    2    3 1    
     3    3    4 1    
     4    3    5 1    
     5    5    6 1    
     6    5    7 1    
     7    7    8 1    
     8    8    9 ar   
     9    9   10 ar   
    10   10   11 ar   
    11   11   12 ar   
    12   12   13 ar   
    13    8   13 ar   
    14   11   14 1    
    15    6   15 1    
    16   15   16 2    
    17   16   17 1    
    18   17   18 2    
    19    6   18 1    
    20    2   19 1    
    21    2   20 1    
    22    1   21 1    
    23    1   22 1    
    24    1   23 1    
    25    3   24 1    
    26    4   25 1    
    27    5   26 1    
    28    7   27 1    
    29    7   28 1    
    30    9   29 1    
    31   10   30 1    
    32   12   31 1    
    33   13   32 1    
    34   15   33 1    
    35   17   34 1    
    36   19   35 1    
    37   19   36 1    
    38   19   37 1    
    39   20   38 1    
    40   20   39 1    
    41   20   40 1    
@<TRIPOS>SUBSTRUCTURE
     1 ****        2 TEMP              0 ****  ****    0 ROOT 
@<TRIPOS>NORMAL
@<TRIPOS>FF_PBC
FORCE_FIELD_SETUP_FEATURE Force Field Setup information
v1.0  0 0.000000 0.000000 0.000000 0.000000 0.000000 0.000000 NONE 0 0 0 0 1 0 0 0 0 0 0 0 0
