#	Name:			PISM00194
#	Creating user name:	14062
#	Creation time:		Wed Jun 19 15:12:34 2019

#	Modifying user name:	14062
#	Modification time:	Wed Jun 19 15:17:18 2019

@<TRIPOS>MOLECULE
PISM00194
   39    40     1     1     0
SMALL
GAST_HUCK


@<TRIPOS>ATOM
      1 C1         -7.0676    0.1254   -0.4198 C.ar      1 BENZYL     -0.0701 
      2 C1         -5.7932    0.6545   -0.2175 C.ar      1 BENZYL     -0.0627 
      3 C2         -4.9450    0.8733   -1.3087 C.ar      1 BENZYL     -0.0239 
      4 C3         -5.3763    0.5771   -2.6122 C.ar      1 BENZYL     -0.0096 
      5 C4         -4.4400    0.6796   -3.6535 C.ar      1 BENZYL     -0.0546 
      6 C5         -3.1609    1.1961   -3.4287 C.ar      1 BENZYL     -0.0625 
      7 C6         -2.7722    1.5650   -2.1407 C.ar      1 BENZYL     -0.0629 
      8 C7         -3.6621    1.3870   -1.0802 C.ar      1 BENZYL     -0.0568 
      9 C9         -6.7118    0.1869   -2.8257 C.ar      1 BENZYL     -0.0094 
     10 C10        -7.5137   -0.1207   -1.7188 C.ar      1 BENZYL     -0.0580 
     11 C11        -7.3439    0.0876   -4.2308 C.3       1 BENZYL      0.0949 
     12 C12        -8.7863    0.5422   -4.2357 C.2       1 BENZYL      0.2469 
     13 O13        -9.0905    1.7060   -4.4449 O.2       1 BENZYL     -0.3669 
     14 O14        -9.7140   -0.3897   -4.0098 O.3       1 BENZYL     -0.2909 
     15 C15        -7.1760   -1.3530   -4.7906 C.3       1 BENZYL     -0.0217 
     16 H1         -7.7093   -0.0914    0.4291 H         1 BENZYL      0.0596 
     17 H2         -5.4722    0.8866    0.7936 H         1 BENZYL      0.0546 
     18 H3         -4.6666    0.3563   -4.6613 H         1 BENZYL      0.0628 
     19 H4         -2.4656    1.3096   -4.2553 H         1 BENZYL      0.0602 
     20 H5         -1.7855    1.9829   -1.9647 H         1 BENZYL      0.0616 
     21 H6         -3.3423    1.6524   -0.0770 H         1 BENZYL      0.0609 
     22 H7         -8.4977   -0.5561   -1.8487 H         1 BENZYL      0.0535 
     23 H8         -6.8587    0.8060   -4.9072 H         1 BENZYL      0.0722 
     24 H9        -10.5882   -0.0162   -4.0346 H         1 BENZYL      0.2541 
     25 C25        -7.6551   -1.4713   -6.2644 C.3       1 BENZYL     -0.0488 
     26 H11        -7.7422   -2.0541   -4.1563 H         1 BENZYL      0.0316 
     27 H12        -6.1143   -1.6423   -4.7389 H         1 BENZYL      0.0316 
     28 H10        -7.0800   -0.7713   -6.8926 H         1 BENZYL      0.0268 
     29 H13        -8.7209   -1.2010   -6.3359 H         1 BENZYL      0.0268 
     30 C30        -7.4643   -2.9157   -6.8029 C.3       1 BENZYL     -0.0530 
     31 H14        -8.0361   -3.6177   -6.1737 H         1 BENZYL      0.0265 
     32 H15        -6.3981   -3.1901   -6.7450 H         1 BENZYL      0.0265 
     33 C33        -7.9447   -3.0407   -8.2746 C.3       1 BENZYL     -0.0559 
     34 H16        -7.3752   -2.3421   -8.9101 H         1 BENZYL      0.0263 
     35 H17        -9.0127   -2.7729   -8.3390 H         1 BENZYL      0.0263 
     36 C36        -7.7521   -4.4837   -8.8095 C.3       1 BENZYL     -0.0653 
     37 H18        -8.3278   -5.1994   -8.2019 H         1 BENZYL      0.0230 
     38 H19        -6.6885   -4.7675   -8.7766 H         1 BENZYL      0.0230 
     39 H20        -8.1001   -4.5506   -9.8524 H         1 BENZYL      0.0230 
@<TRIPOS>BOND
     1    2    3 ar   
     2    3    4 ar   
     3    3    8 ar   
     4    8    7 ar   
     5    7    6 ar   
     6    6    5 ar   
     7    5    4 ar   
     8    2    1 ar   
     9    4    9 ar   
    10    9   10 ar   
    11    1   10 ar   
    12    9   11 1    
    13   11   12 1    
    14   12   13 2    
    15   12   14 1    
    16   11   15 1    
    17    1   16 1    
    18    2   17 1    
    19    5   18 1    
    20    6   19 1    
    21    7   20 1    
    22    8   21 1    
    23   10   22 1    
    24   11   23 1    
    25   14   24 1    
    26   15   25 1    
    27   15   26 1    
    28   15   27 1    
    29   25   28 1    
    30   25   29 1    
    31   25   30 1    
    32   30   31 1    
    33   30   32 1    
    34   30   33 1    
    35   33   34 1    
    36   33   35 1    
    37   33   36 1    
    38   36   37 1    
    39   36   38 1    
    40   36   39 1    
@<TRIPOS>SUBSTRUCTURE
     1 BENZYL      2 PERM              0 ****  ****    0 ROOT 
@<TRIPOS>NORMAL
@<TRIPOS>FF_PBC
FORCE_FIELD_SETUP_FEATURE Force Field Setup information
v1.0  0 0.000000 0.000000 0.000000 0.000000 0.000000 0.000000 NONE 0 0 0 0 1 0 0 0 0 0 0 0 0
