#	Name:			PISM00460
#	Creating user name:	Administrator
#	Creation time:		Sat Feb 23 00:08:02 2019

#	Modifying user name:	Administrator
#	Modification time:	Sat Feb 23 00:17:01 2019

@<TRIPOS>MOLECULE
PISM00460
   42    43     1     2     0
SMALL
GAST_HUCK


@<TRIPOS>ATOM
      1 C1          6.1669    0.6296    3.4383 C.2       1 PHENYL     -0.0038 
      2 N2          5.4125    0.0867    2.5815 N.2       1 PHENYL     -0.2468 
      3 N3          4.4094    0.9211    2.2432 N.pl3     1 PHENYL     -0.2257 
      4 C4          4.5242    2.0407    2.9094 C.2       1 PHENYL      0.0587 
      5 C5          5.6277    1.9745    3.6675 C.2       1 PHENYL     -0.0133 
      6 C6          6.2543    3.0081    4.5662 C.3       1 PHENYL      0.0433 
      7 N7          6.1430    2.6428    5.9729 N.am      1 PHENYL     -0.2366 
      8 S8          7.6156    2.9452    7.0653 S.o2      1 PHENYL      0.0518 
      9 O9          8.7780    3.1183    6.2171 O.2       1 PHENYL     -0.1531 
     10 O10         7.6340    1.9516    8.1188 O.2       1 PHENYL     -0.1531 
     11 C11         7.1448    4.5385    7.7747 C.3       1 PHENYL      0.1184 
     12 C           8.1408    5.1682    8.7642 C.ar      1 PHENYL     -0.0201 
     13 C           9.5043    4.8474    8.7635 C.ar      1 PHENYL     -0.0581 
     14 C          10.3858    5.4842    9.6425 C.ar      1 PHENYL     -0.0545 
     15 C           9.9091    6.4289   10.5539 C.ar      1 PHENYL      0.0330 
     16 C           8.5457    6.7289   10.5865 C.ar      1 PHENYL     -0.0545 
     17 C           7.6696    6.1037    9.6945 C.ar      1 PHENYL     -0.0581 
     18 C18         7.3618   -0.0196    4.0780 C.3       1 PHENYL     -0.0319 
     19 C19         3.5533    3.1927    2.8024 C.3       1 PHENYL     -0.0085 
     20 C20         3.3778    0.5614    1.2759 C.3       1 PHENYL      0.0529 
     21 C21         4.8915    2.2100    6.5805 C.3       1 PHENYL      0.0190 
     22 Cl22       11.0169    7.2321   11.6486 Cl        1 PHENYL     -0.0771 
     23 H1          5.8498    4.0181    4.4250 H         1 PHENYL      0.0535 
     24 H2          7.3106    3.0490    4.2667 H         1 PHENYL      0.0535 
     25 H3          6.1851    4.3728    8.2855 H         1 PHENYL      0.0683 
     26 H4          6.9875    5.2438    6.9459 H         1 PHENYL      0.0683 
     27 H5          9.9048    4.1063    8.0853 H         1 PHENYL      0.0558 
     28 H6         11.4441    5.2465    9.6188 H         1 PHENYL      0.0606 
     29 H7          8.1712    7.4499   11.3060 H         1 PHENYL      0.0606 
     30 H8          6.6142    6.3558    9.7297 H         1 PHENYL      0.0558 
     31 H9          7.7638    0.6040    4.8899 H         1 PHENYL      0.0367 
     32 H10         8.1439   -0.1790    3.3215 H         1 PHENYL      0.0367 
     33 H11         7.0598   -0.9913    4.4958 H         1 PHENYL      0.0367 
     34 H12         3.7596    3.9970    3.5200 H         1 PHENYL      0.0412 
     35 H13         2.5358    2.8316    3.0104 H         1 PHENYL      0.0412 
     36 H14         3.5937    3.6111    1.7866 H         1 PHENYL      0.0412 
     37 H15         2.5743    1.3018    1.1705 H         1 PHENYL      0.0585 
     38 H16         2.9351   -0.3965    1.5855 H         1 PHENYL      0.0585 
     39 H17         3.8599    0.4272    0.2961 H         1 PHENYL      0.0585 
     40 H18         4.2478    1.6792    5.8631 H         1 PHENYL      0.0443 
     41 H19         4.3455    3.0878    6.9559 H         1 PHENYL      0.0443 
     42 H20         5.0984    1.5332    7.4222 H         1 PHENYL      0.0443 
@<TRIPOS>BOND
     1    1    2 2    
     2    2    3 1    
     3    4    3 1    
     4    5    4 2    
     5    5    1 1    
     6    6    5 1    
     7    7    6 1    
     8    8    7 1    
     9    8    9 2    
    10    8   10 2    
    11   11    8 1    
    12   12   13 ar   
    13   12   17 ar   
    14   17   16 ar   
    15   16   15 ar   
    16   14   15 ar   
    17   13   14 ar   
    18   12   11 1    
    19    1   18 1    
    20    4   19 1    
    21    3   20 1    
    22    7   21 1    
    23   15   22 1    
    24    6   23 1    
    25    6   24 1    
    26   11   25 1    
    27   11   26 1    
    28   13   27 1    
    29   14   28 1    
    30   16   29 1    
    31   17   30 1    
    32   18   31 1    
    33   18   32 1    
    34   18   33 1    
    35   19   34 1    
    36   19   35 1    
    37   19   36 1    
    38   20   37 1    
    39   20   38 1    
    40   20   39 1    
    41   21   40 1    
    42   21   41 1    
    43   21   42 1    
@<TRIPOS>SUBSTRUCTURE
     1 PHENYL     12 PERM              0 ****  ****    0 ROOT 
@<TRIPOS>NORMAL
@<TRIPOS>FF_PBC
FORCE_FIELD_SETUP_FEATURE Force Field Setup information
v1.0  0 0.000000 0.000000 0.000000 0.000000 0.000000 0.000000 NONE 0 0 0 0 1 0 0 0 0 0 0 0 0
@<TRIPOS>RENDERING_ATTRS
ANTIALIASED_LINES 
*
