#	Name:			PISM00468
#	Creating user name:	baoopengkun
#	Creation time:		Wed Feb 27 21:37:54 2019

#	Modifying user name:	baoopengkun
#	Modification time:	Wed Feb 27 21:38:40 2019

@<TRIPOS>MOLECULE
PISM00468
   13    12     1     1     0
SMALL
GAST_HUCK


@<TRIPOS>ATOM
      1 Cl1        17.0588    4.5017  -12.1027 Cl        1 <1>        -0.1234 
      2 C2         17.7973    4.9293  -13.6513 C.3       1 <1>         0.0455 
      3 C3         17.1140    4.1484  -14.7971 C.3       1 <1>         0.0872 
      4 P4         17.8650    4.5617  -16.4134 P.3       1 <1>         0.2686 
      5 O5         19.4225    4.2060  -16.4331 O.3       1 <1>        -0.2484 
      6 O6         17.1062    3.8335  -17.6163 O.3       1 <1>        -0.2484 
      7 O7         17.7342    6.0289  -16.6071 O.2       1 <1>        -0.5354 
      8 H1         18.8701    4.6850  -13.6100 H         1 <1>         0.0449 
      9 H2         17.6868    6.0135  -13.8118 H         1 <1>         0.0449 
     10 H3         16.0466    4.4131  -14.8453 H         1 <1>         0.0558 
     11 H4         17.2076    3.0648  -14.6305 H         1 <1>         0.0558 
     12 H5         19.5489    3.2706  -16.3518 H         1 <1>         0.2764 
     13 H6         17.1861    2.8928  -17.5372 H         1 <1>         0.2764 
@<TRIPOS>BOND
     1    2    1 1    
     2    2    3 1    
     3    3    4 1    
     4    4    5 1    
     5    4    6 1    
     6    4    7 2    
     7    2    8 1    
     8    2    9 1    
     9    3   10 1    
    10    3   11 1    
    11    5   12 1    
    12    6   13 1    
@<TRIPOS>SUBSTRUCTURE
     1 ****        2 TEMP              0 ****  ****    0 ROOT 
@<TRIPOS>NORMAL
@<TRIPOS>FF_PBC
FORCE_FIELD_SETUP_FEATURE Force Field Setup information
v1.0  0 0.000000 0.000000 0.000000 0.000000 0.000000 0.000000 NONE 0 0 0 0 1 0 0 0 0 0 0 0 0
