#	Name:			PISM00630
#	Creating user name:	baoopengkun
#	Creation time:		Mon Dec 10 11:09:39 2018

#	Modifying user name:	baoopengkun
#	Modification time:	Mon Dec 10 11:09:56 2018

@<TRIPOS>MOLECULE
PISM00630
   54    58     1     2     0
SMALL
GAST_HUCK


@<TRIPOS>ATOM
      1 C1         13.9825   -2.7168  -29.0489 C.ar      1 PHENYL     -0.0348 
      2 C2         13.8570   -4.0343  -28.5991 C.ar      1 PHENYL     -0.0180 
      3 C3         13.5356   -5.0526  -29.5011 C.ar      1 PHENYL      0.0714 
      4 C4         13.3163   -4.7491  -30.8475 C.ar      1 PHENYL     -0.0180 
      5 C5         13.4383   -3.4305  -31.2949 C.ar      1 PHENYL     -0.0348 
      6 C6         13.7995   -2.4158  -30.4026 C.ar      1 PHENYL      0.0068 
      7 C7         13.9921   -0.9796  -30.9066 C.3       1 PHENYL      0.1921 
      8 C8         12.6335   -0.2459  -30.8938 C.3       1 PHENYL      0.1073 
      9 N9         11.9918   -0.3655  -29.5921 N.pl3     1 PHENYL     -0.1814 
     10 N10        12.0728    0.5230  -28.5621 N.2       1 PHENYL     -0.1908 
     11 C11        11.3789    0.1769  -27.5427 C.2       1 PHENYL      0.0618 
     12 N12        10.8068   -1.0551  -28.0115 N.2       1 PHENYL     -0.2870 
     13 C13        11.1902   -1.3000  -29.1810 C.2       1 PHENYL      0.1270 
     14 O14        14.9916   -0.2635  -30.1689 O.3       1 PHENYL     -0.3814 
     15 C15        16.2541   -0.7967  -30.5765 C.3       1 PHENYL      0.0672 
     16 C16        15.9970   -1.0506  -32.0818 C.3       1 PHENYL      0.1005 
     17 O17        14.5689   -0.9600  -32.2201 O.3       1 PHENYL     -0.3757 
     18 C18        16.5571   -2.4061  -32.5837 C.3       1 PHENYL      0.0982 
     19 O19        16.1102   -3.4893  -31.7502 O.3       1 PHENYL     -0.3142 
     20 C20        16.5262   -4.7464  -32.1801 C.ar      1 PHENYL      0.0930 
     21 C21        15.7979   -5.4250  -33.1604 C.ar      1 PHENYL     -0.0312 
     22 C22        16.2332   -6.6731  -33.6148 C.ar      1 PHENYL     -0.0616 
     23 C23        17.3982   -7.2408  -33.0896 C.ar      1 PHENYL     -0.0279 
     24 C24        18.1115   -6.5720  -32.0895 C.ar      1 PHENYL     -0.0616 
     25 C25        17.6723   -5.3263  -31.6316 C.ar      1 PHENYL     -0.0312 
     26 C          17.8771   -8.5499  -33.5969 C.ar      1 PHENYL     -0.0247 
     27 C          19.1498   -8.6518  -34.1673 C.ar      1 PHENYL     -0.0567 
     28 C          19.6088   -9.8839  -34.6421 C.ar      1 PHENYL     -0.0629 
     29 Cl29       13.4063   -6.7088  -28.9453 Cl        1 PHENYL     -0.0420 
     30 H1         14.2206   -1.9239  -28.3460 H         1 PHENYL      0.0849 
     31 H2         14.0084   -4.2680  -27.5497 H         1 PHENYL      0.0703 
     32 H3         13.0533   -5.5391  -31.5439 H         1 PHENYL      0.0703 
     33 H4         13.2591   -3.1941  -32.3388 H         1 PHENYL      0.0849 
     34 H5         11.9880   -0.6728  -31.6762 H         1 PHENYL      0.0595 
     35 H6         12.8055    0.8165  -31.1214 H         1 PHENYL      0.0595 
     36 H7         11.2557    0.6812  -26.5851 H         1 PHENYL      0.0863 
     37 H8         10.8818   -2.1767  -29.7497 H         1 PHENYL      0.1361 
     38 H9         16.4514   -1.7292  -30.0257 H         1 PHENYL      0.0576 
     39 H10        17.0723   -0.0868  -30.3795 H         1 PHENYL      0.0576 
     40 H11        16.4086   -0.2254  -32.6869 H         1 PHENYL      0.0635 
     41 H12        17.6583   -2.3690  -32.5708 H         1 PHENYL      0.0641 
     42 H13        16.2147   -2.5526  -33.6210 H         1 PHENYL      0.0641 
     43 H14        14.8973   -4.9794  -33.5684 H         1 PHENYL      0.0548 
     44 H15        15.6684   -7.1987  -34.3783 H         1 PHENYL      0.0601 
     45 C          18.7926  -11.0153  -34.5505 C.ar      1 PHENYL     -0.0632 
     46 H16        18.2168   -4.8037  -30.8523 H         1 PHENYL      0.0548 
     47 C          17.5179  -10.9137  -33.9850 C.ar      1 PHENYL     -0.0629 
     48 C          17.0604   -9.6816  -33.5080 C.ar      1 PHENYL     -0.0567 
     49 H17        19.0062   -7.0195  -31.6678 H         1 PHENYL      0.0601 
     50 H18        19.7828   -7.7734  -34.2443 H         1 PHENYL      0.0609 
     51 H19        20.5982   -9.9618  -35.0826 H         1 PHENYL      0.0614 
     52 H20        19.1485  -11.9726  -34.9186 H         1 PHENYL      0.0605 
     53 H21        16.8836  -11.7922  -33.9159 H         1 PHENYL      0.0614 
     54 H22        16.0712   -9.6055  -33.0675 H         1 PHENYL      0.0609 
@<TRIPOS>BOND
     1    1    2 ar   
     2    2    3 ar   
     3    4    3 ar   
     4    5    4 ar   
     5    6    5 ar   
     6    6    1 ar   
     7    7    6 1    
     8    7    8 1    
     9    8    9 1    
    10    9   10 1    
    11   10   11 2    
    12   12   11 1    
    13   13   12 2    
    14    9   13 1    
    15    7   14 1    
    16   15   14 1    
    17   16   15 1    
    18   16   17 1    
    19   17    7 1    
    20   18   16 1    
    21   19   18 1    
    22   20   19 1    
    23   21   20 ar   
    24   22   21 ar   
    25   23   22 ar   
    26   23   24 ar   
    27   24   25 ar   
    28   25   20 ar   
    29   26   27 ar   
    30   26   48 ar   
    31   48   47 ar   
    32    3   29 1    
    33    1   30 1    
    34    2   31 1    
    35    4   32 1    
    36    5   33 1    
    37    8   34 1    
    38    8   35 1    
    39   11   36 1    
    40   13   37 1    
    41   15   38 1    
    42   15   39 1    
    43   16   40 1    
    44   18   41 1    
    45   18   42 1    
    46   21   43 1    
    47   22   44 1    
    48   47   45 ar   
    49   28   45 ar   
    50   25   46 1    
    51   27   28 ar   
    52   26   23 1    
    53   24   49 1    
    54   27   50 1    
    55   28   51 1    
    56   45   52 1    
    57   47   53 1    
    58   48   54 1    
@<TRIPOS>SUBSTRUCTURE
     1 PHENYL     26 PERM              0 ****  ****    0 ROOT 
@<TRIPOS>NORMAL
@<TRIPOS>FF_PBC
FORCE_FIELD_SETUP_FEATURE Force Field Setup information
v1.0  0 0.000000 0.000000 0.000000 0.000000 0.000000 0.000000 NONE 0 0 0 0 1 0 0 0 0 0 0 0 0
@<TRIPOS>RENDERING_ATTRS
ANTIALIASED_LINES 
*
