#	Name:			PISM00054
#	Creating user name:	baoopengkun
#	Creation time:		Thu Dec 27 12:26:19 2018

#	Modifying user name:	baoopengkun
#	Modification time:	Thu Dec 27 12:27:54 2018

@<TRIPOS>MOLECULE
PISM00054
   33    34     1     1     0
SMALL
GAST_HUCK


@<TRIPOS>ATOM
      1 Br1         7.0527   -2.3048  -20.1511 Br        1 <1>        -0.0594 
      2 C2          5.9502   -1.5803  -18.8505 C.ar      1 <1>         0.0062 
      3 C3          4.7608   -0.9453  -19.2140 C.ar      1 <1>        -0.0580 
      4 C4          3.9382   -0.3902  -18.2300 C.ar      1 <1>        -0.0307 
      5 C5          4.3145   -0.4248  -16.8812 C.ar      1 <1>         0.0862 
      6 C6          5.4846   -1.1054  -16.5166 C.ar      1 <1>         0.0860 
      7 C7          6.3037   -1.6683  -17.5019 C.ar      1 <1>        -0.0409 
      8 C8          5.8722   -1.2358  -15.0592 C.2       1 <1>         0.2540 
      9 O9          7.0280   -1.8101  -14.7206 O.3       1 <1>        -0.2954 
     10 O10         5.1197   -0.8177  -14.1932 O.2       1 <1>        -0.3643 
     11 N11         3.5543    0.1833  -15.9352 N.pl3     1 <1>        -0.2343 
     12 C12         3.0828    1.3920  -16.0947 C.2       1 <1>         0.2264 
     13 O13         3.3324    2.0379  -17.0999 O.2       1 <1>        -0.3720 
     14 C14         2.2102    2.0614  -15.0493 C.ar      1 <1>         0.0846 
     15 C15         1.8142    3.3935  -15.2266 C.ar      1 <1>        -0.0496 
     16 C16         0.9652    4.0141  -14.3063 C.ar      1 <1>        -0.0669 
     17 C17         0.4875    3.2964  -13.2077 C.ar      1 <1>        -0.0660 
     18 C18         0.8815    1.9687  -13.0234 C.ar      1 <1>        -0.0266 
     19 C19         1.7830    1.3681  -13.9098 C.ar      1 <1>         0.1131 
     20 O20         2.2539    0.0717  -13.6710 O.3       1 <1>        -0.3156 
     21 C21         2.9161   -0.1484  -12.4088 C.3       1 <1>         0.0612 
     22 H1          4.4753   -0.8845  -20.2595 H         1 <1>         0.0649 
     23 H2          2.9972    0.0630  -18.5247 H         1 <1>         0.0550 
     24 H3          7.2205   -2.1784  -17.2257 H         1 <1>         0.0669 
     25 H4          7.1496   -1.8285  -13.7776 H         1 <1>         0.2519 
     26 H5          3.3744   -0.3152  -15.0475 H         1 <1>         0.2131 
     27 H6          2.1634    3.9593  -16.0847 H         1 <1>         0.0642 
     28 H7          0.6749    5.0512  -14.4461 H         1 <1>         0.0537 
     29 H8         -0.1886    3.7686  -12.5009 H         1 <1>         0.0626 
     30 H9          0.4750    1.4080  -12.1896 H         1 <1>         0.0555 
     31 H10         3.7788    0.5286  -12.3065 H         1 <1>         0.0581 
     32 H11         3.2799   -1.1864  -12.3911 H         1 <1>         0.0581 
     33 H12         2.2467   -0.0126  -11.5476 H         1 <1>         0.0581 
@<TRIPOS>BOND
     1    2    1 1    
     2    2    3 ar   
     3    3    4 ar   
     4    4    5 ar   
     5    5    6 ar   
     6    6    7 ar   
     7    2    7 ar   
     8    6    8 1    
     9    8    9 1    
    10    8   10 2    
    11    5   11 1    
    12   11   12 1    
    13   12   13 2    
    14   12   14 1    
    15   14   15 ar   
    16   15   16 ar   
    17   16   17 ar   
    18   17   18 ar   
    19   18   19 ar   
    20   14   19 ar   
    21   19   20 1    
    22   20   21 1    
    23    3   22 1    
    24    4   23 1    
    25    7   24 1    
    26    9   25 1    
    27   11   26 1    
    28   15   27 1    
    29   16   28 1    
    30   17   29 1    
    31   18   30 1    
    32   21   31 1    
    33   21   32 1    
    34   21   33 1    
@<TRIPOS>SUBSTRUCTURE
     1 ****        2 TEMP              0 ****  ****    0 ROOT 
@<TRIPOS>NORMAL
@<TRIPOS>FF_PBC
FORCE_FIELD_SETUP_FEATURE Force Field Setup information
v1.0  0 0.000000 0.000000 0.000000 0.000000 0.000000 0.000000 NONE 0 0 0 0 1 0 0 0 0 0 0 0 0
