#	Name:			PISM00854.1
#	Creating user name:	baoopengkun
#	Creation time:		Thu Dec 13 15:12:19 2018

#	Modifying user name:	baoopengkun
#	Modification time:	Thu Dec 13 20:09:24 2018

@<TRIPOS>MOLECULE
PISM00854.1
   24    25     1     1     0
SMALL
GAST_HUCK


@<TRIPOS>ATOM
      1 F1          0.6912   -1.4093    1.2185 F         1 <1>        -0.1935 
      2 C2          2.1530   -2.5724    2.6564 C.ar      1 <1>        -0.0385 
      3 C3          3.3129   -2.5915    3.4369 C.ar      1 <1>        -0.0412 
      4 C4          4.1165   -1.4515    3.5185 C.ar      1 <1>         0.1196 
      5 C5          3.7612   -0.2948    2.8205 C.ar      1 <1>        -0.0011 
      6 C6          2.6073   -0.2758    2.0327 C.ar      1 <1>         0.1296 
      7 C7          1.7991   -1.4159    1.9560 C.ar      1 <1>         0.1555 
      8 F8          5.2204   -1.4673    4.2598 F         1 <1>        -0.1897 
      9 O9          2.2740    0.8855    1.3331 O.3       1 <1>        -0.2718 
     10 C10         2.3528    0.7900   -0.0973 C.3       1 <1>         0.2349 
     11 O11         2.0867    2.0980   -0.6412 O.3       1 <1>        -0.2315 
     12 C12         3.2127    2.4658   -1.2399 C.2       1 <1>         0.2494 
     13 C13         4.2935    1.4880   -1.1999 C.2       1 <1>         0.0292 
     14 C14         3.7679    0.4706   -0.5205 C.2       1 <1>        -0.0021 
     15 C15         5.6664    1.6051   -1.8033 C.3       1 <1>        -0.0323 
     16 O16         3.3289    3.5467   -1.7911 O.2       1 <1>        -0.3691 
     17 H1          1.5233   -3.4538    2.5913 H         1 <1>         0.0565 
     18 H2          3.5931   -3.4877    3.9809 H         1 <1>         0.0501 
     19 H3          4.3834    0.5906    2.8890 H         1 <1>         0.0516 
     20 H4          1.6318    0.0709   -0.5186 H         1 <1>         0.1197 
     21 H5          4.2860   -0.4608   -0.2954 H         1 <1>         0.0705 
     22 H6          6.0835    0.6097   -2.0184 H         1 <1>         0.0347 
     23 H7          6.3295    2.1295   -1.0995 H         1 <1>         0.0347 
     24 H8          5.6131    2.1789   -2.7407 H         1 <1>         0.0347 
@<TRIPOS>BOND
     1    7    1 1    
     2    2    3 ar   
     3    3    4 ar   
     4    4    5 ar   
     5    5    6 ar   
     6    6    7 ar   
     7    2    7 ar   
     8    4    8 1    
     9    6    9 1    
    10    9   10 1    
    11   10   11 1    
    12   11   12 1    
    13   12   13 1    
    14   13   14 2    
    15   10   14 1    
    16   13   15 1    
    17   12   16 2    
    18    2   17 1    
    19    3   18 1    
    20    5   19 1    
    21   10   20 1    
    22   14   21 1    
    23   15   22 1    
    24   15   23 1    
    25   15   24 1    
@<TRIPOS>SUBSTRUCTURE
     1 ****        2 TEMP              0 ****  ****    0 ROOT 
@<TRIPOS>NORMAL
@<TRIPOS>FF_PBC
FORCE_FIELD_SETUP_FEATURE Force Field Setup information
v1.0  0 0.000000 0.000000 0.000000 0.000000 0.000000 0.000000 NONE 0 0 0 0 1 0 0 0 0 0 0 0 0
