#	Name:			PISM00128
#	Creating user name:	malab
#	Creation time:		Thu Apr 04 11:00:27 2019

#	Modifying user name:	malab
#	Modification time:	Thu Apr 04 11:02:31 2019

@<TRIPOS>MOLECULE
PISM00128
   53    56     1     1     0
SMALL
GAST_HUCK


@<TRIPOS>ATOM
      1 C1         -1.7562   -0.4371   -6.7642 C.ar      1 <1>        -0.0575 
      2 C2         -1.1953   -0.5723   -8.0374 C.ar      1 <1>        -0.0567 
      3 C3         -1.8688   -1.3022   -9.0208 C.ar      1 <1>        -0.0414 
      4 C4         -3.0878   -1.9158   -8.7170 C.ar      1 <1>         0.0643 
      5 C5         -3.6122   -1.8477   -7.4259 C.ar      1 <1>         0.0171 
      6 C6         -2.9780   -1.0484   -6.4671 C.ar      1 <1>        -0.0479 
      7 C7         -3.8914   -2.6596   -9.7581 C.2       1 <1>         0.2403 
      8 O8         -3.4841   -2.6884  -10.9090 O.2       1 <1>        -0.3805 
      9 N9         -5.0036   -3.2455   -9.3991 N.pl3     1 <1>        -0.1630 
     10 C10        -5.7920   -3.9529  -10.4021 C.3       1 <1>         0.0567 
     11 N11        -5.4574   -3.2402   -8.1207 N.2       1 <1>        -0.1772 
     12 C12        -4.8685   -2.6482   -7.1582 C.2       1 <1>         0.0803 
     13 C13        -5.4628   -2.7720   -5.7719 C.ar      1 <1>        -0.0109 
     14 C14        -4.6589   -3.0349   -4.6569 C.ar      1 <1>        -0.0605 
     15 C15        -5.2099   -3.0030   -3.3721 C.ar      1 <1>        -0.0310 
     16 C16        -6.5703   -2.7326   -3.2046 C.ar      1 <1>         0.0961 
     17 C17        -7.3984   -2.6098   -4.3224 C.ar      1 <1>        -0.0310 
     18 C18        -6.8440   -2.6269   -5.6053 C.ar      1 <1>        -0.0605 
     19 O19        -7.1006   -2.5698   -1.9255 O.3       1 <1>        -0.2964 
     20 C20        -6.9325   -1.2264   -1.4251 C.3       1 <1>         0.1596 
     21 C21        -7.5527   -1.0093   -0.0615 C.2       1 <1>         0.2096 
     22 O22        -8.2332   -1.9182    0.3860 O.2       1 <1>        -0.3939 
     23 N23        -7.3674    0.1429    0.6481 N.am      1 <1>        -0.2685 
     24 C24        -6.4893    1.2102    0.1559 C.3       1 <1>         0.0467 
     25 C25        -6.9740    2.6103    0.6092 C.3       1 <1>         0.0191 
     26 N26        -7.2578    2.6125    2.0627 N.3       1 <1>        -0.3015 
     27 C27        -8.3424    1.6552    2.3837 C.3       1 <1>         0.0191 
     28 C28        -7.9102    0.2163    2.0074 C.3       1 <1>         0.0467 
     29 C29        -7.4705    3.9687    2.6226 C.3       1 <1>        -0.0126 
     30 H1         -1.2421    0.1464   -6.0057 H         1 <1>         0.0650 
     31 H2         -0.2401   -0.1075   -8.2638 H         1 <1>         0.0625 
     32 H3         -1.4461   -1.3909  -10.0170 H         1 <1>         0.0667 
     33 H4         -3.4254   -0.8852   -5.4936 H         1 <1>         0.0631 
     34 H5         -6.1157   -3.2527  -11.1878 H         1 <1>         0.0557 
     35 H6         -6.6863   -4.4029   -9.9440 H         1 <1>         0.0557 
     36 H7         -5.1906   -4.7545  -10.8583 H         1 <1>         0.0557 
     37 H8         -3.6065   -3.2693   -4.7852 H         1 <1>         0.0598 
     38 H9         -4.5861   -3.1843   -2.5029 H         1 <1>         0.0548 
     39 H10        -8.4684   -2.4954   -4.1880 H         1 <1>         0.0548 
     40 H11        -7.4868   -2.5191   -6.4737 H         1 <1>         0.0598 
     41 H12        -7.4150   -0.5277   -2.1258 H         1 <1>         0.0860 
     42 H13        -5.8537   -1.0187   -1.3587 H         1 <1>         0.0860 
     43 H14        -6.4050    1.2627   -0.9394 H         1 <1>         0.0535 
     44 H15        -5.4853    1.0336    0.5738 H         1 <1>         0.0535 
     45 H16        -7.8829    2.8866    0.0482 H         1 <1>         0.0446 
     46 H17        -6.1913    3.3490    0.3673 H         1 <1>         0.0446 
     47 H18        -9.2604    1.9187    1.8319 H         1 <1>         0.0446 
     48 H19        -8.5760    1.6810    3.4611 H         1 <1>         0.0446 
     49 H20        -8.7809   -0.4428    2.1645 H         1 <1>         0.0535 
     50 H21        -7.1126   -0.1041    2.6968 H         1 <1>         0.0535 
     51 H22        -6.5984    4.6088    2.4187 H         1 <1>         0.0391 
     52 H23        -7.5950    3.9170    3.7149 H         1 <1>         0.0391 
     53 H24        -8.3651    4.4377    2.1844 H         1 <1>         0.0391 
@<TRIPOS>BOND
     1    2    1 ar   
     2    2    3 ar   
     3    3    4 ar   
     4    4    5 ar   
     5    5    6 ar   
     6    1    6 ar   
     7    4    7 1    
     8    7    8 2    
     9    7    9 1    
    10    9   10 1    
    11    9   11 1    
    12   11   12 2    
    13    5   12 1    
    14   12   13 1    
    15   13   14 ar   
    16   14   15 ar   
    17   15   16 ar   
    18   16   17 ar   
    19   17   18 ar   
    20   13   18 ar   
    21   16   19 1    
    22   19   20 1    
    23   20   21 1    
    24   21   22 2    
    25   21   23 am   
    26   23   24 1    
    27   24   25 1    
    28   25   26 1    
    29   26   27 1    
    30   27   28 1    
    31   23   28 1    
    32   26   29 1    
    33    1   30 1    
    34    2   31 1    
    35    3   32 1    
    36    6   33 1    
    37   10   34 1    
    38   10   35 1    
    39   10   36 1    
    40   14   37 1    
    41   15   38 1    
    42   17   39 1    
    43   18   40 1    
    44   20   41 1    
    45   20   42 1    
    46   24   43 1    
    47   24   44 1    
    48   25   45 1    
    49   25   46 1    
    50   27   47 1    
    51   27   48 1    
    52   28   49 1    
    53   28   50 1    
    54   29   51 1    
    55   29   52 1    
    56   29   53 1    
@<TRIPOS>SUBSTRUCTURE
     1 ****        2 TEMP              0 ****  ****    0 ROOT 
@<TRIPOS>NORMAL
@<TRIPOS>FF_PBC
FORCE_FIELD_SETUP_FEATURE Force Field Setup information
v1.0  0 0.000000 0.000000 0.000000 0.000000 0.000000 0.000000 NONE 0 0 0 0 1 0 0 0 0 0 0 0 0
