#	Name:			PISM00541
#	Creating user name:	malab
#	Creation time:		Thu Apr 04 21:54:49 2019

#	Modifying user name:	malab
#	Modification time:	Thu Apr 04 22:02:58 2019

@<TRIPOS>MOLECULE
PISM00541
   33    35     1     1     0
SMALL
GAST_HUCK


@<TRIPOS>ATOM
      1 C1         18.1870    3.7333   -4.9606 C.ar      1 <1>        -0.0618 
      2 C2         17.9561    4.0430   -3.6171 C.ar      1 <1>        -0.0702 
      3 C3         19.3469    4.2015   -5.5853 C.ar      1 <1>        -0.0038 
      4 C4         20.2795    4.9697   -4.8900 C.ar      1 <1>         0.0755 
      5 C5         20.0475    5.2637   -3.5408 C.ar      1 <1>         0.1137 
      6 C6         18.8877    4.8066   -2.9083 C.ar      1 <1>        -0.0299 
      7 C7         19.6752    3.9210   -7.0297 C.2       1 <1>         0.0000 
      8 O8         20.7923    4.4212   -7.5588 O.3       1 <1>         0.0000 
      9 C9         21.6184    5.1594   -6.7978 C.2       1 <1>         0.0342 
     10 N10        21.3871    5.4191   -5.5316 N.pl3     1 <1>         0.0000 
     11 Cl11       18.6018    5.1972   -1.2245 Cl        1 <1>         0.0000 
     12 C12        22.8447    5.7088   -7.4252 C.2       1 <1>        -0.0407 
     13 C13        23.0988    5.5982   -8.7370 C.2       1 <1>        -0.0550 
     14 C14        24.3239    6.1779   -9.4172 C.ar      1 <1>        -0.0281 
     15 C15        24.7836    5.5892  -10.6002 C.ar      1 <1>         0.0050 
     16 C16        25.9226    6.0753  -11.2492 C.ar      1 <1>        -0.0259 
     17 C17        26.6324    7.1623  -10.7252 C.ar      1 <1>         0.1254 
     18 C18        26.1640    7.7617   -9.5493 C.ar      1 <1>         0.1272 
     19 C19        25.0110    7.2896   -8.9149 C.ar      1 <1>        -0.0275 
     20 H20        24.2549    4.7415  -11.0232 H         1 <1>        -0.0584 
     21 N21        27.7482    7.6231  -11.3459 N.pl3     1 <1>         0.0000 
     22 H22        26.6897    8.6055   -9.1135 H         1 <1>        -0.3219 
     23 O23        28.3579    8.5741  -10.9070 O.2       1 <1>         0.0000 
     24 O24        18.9306    3.2440   -7.7196 O.2       1 <1>         0.0000 
     25 O25        28.2250    7.0119  -12.5139 O.3       1 <1>         0.0000 
     26 H1         17.4681    3.1353   -5.5110 H         1 <1>         0.0000 
     27 H2         17.0544    3.6929   -3.1245 H         1 <1>         0.0000 
     28 H4         20.7642    5.8499   -2.9757 H         1 <1>         0.0000 
     29 H6         23.5607    6.2182   -6.7833 H         1 <1>         0.0000 
     30 H7         22.3932    5.0584   -9.3686 H         1 <1>         0.0000 
     31 H8         26.2478    5.5941  -12.1654 H         1 <1>         0.0000 
     32 H9         24.6567    7.8111   -8.0336 H         1 <1>         0.0000 
     33 H10        22.0632    5.9928   -5.0033 H         1 <1>         0.0000 
@<TRIPOS>BOND
     1    1    2 ar   
     2    1    3 ar   
     3    3    4 ar   
     4    4    5 ar   
     5    6    5 ar   
     6    2    6 ar   
     7    3    7 1    
     8    7    8 1    
     9    8    9 1    
    10    4   10 1    
    11    9   10 1    
    12    6   11 1    
    13    9   12 1    
    14   12   13 2    
    15   13   14 1    
    16   14   15 ar   
    17   15   16 ar   
    18   16   17 ar   
    19   18   17 ar   
    20   19   18 ar   
    21   14   19 ar   
    22   15   20 1    
    23   17   21 1    
    24   18   22 1    
    25   21   23 2    
    26    7   24 2    
    27   21   25 1    
    28    1   26 1    
    29    2   27 1    
    30    5   28 1    
    31   12   29 1    
    32   13   30 1    
    33   16   31 1    
    34   19   32 1    
    35   10   33 1    
@<TRIPOS>SUBSTRUCTURE
     1 ****        1 TEMP              0 ****  ****    0 ROOT 
@<TRIPOS>NORMAL
@<TRIPOS>FF_PBC
FORCE_FIELD_SETUP_FEATURE Force Field Setup information
v1.0  0 0.000000 0.000000 0.000000 0.000000 0.000000 0.000000 NONE 0 0 0 0 0 0 0 0 0 0 0 0 0
