#	Name:			PISM00542
#	Creating user name:	malab
#	Creation time:		Thu Apr 04 21:54:49 2019

#	Modifying user name:	malab
#	Modification time:	Thu Apr 04 22:05:57 2019

@<TRIPOS>MOLECULE
PISM00542
   32    34     1     1     0
SMALL
GAST_HUCK


@<TRIPOS>ATOM
      1 C1         18.1728    3.6956   -4.8638 C.ar      1 <1>        -0.0618 
      2 C2         17.9854    4.0102   -3.5145 C.ar      1 <1>        -0.0702 
      3 C3         19.2856    4.1932   -5.5515 C.ar      1 <1>        -0.0038 
      4 C4         20.2104    5.0029   -4.8837 C.ar      1 <1>         0.0755 
      5 C5         20.0215    5.3179   -3.5353 C.ar      1 <1>         0.1137 
      6 C6         18.9090    4.8220   -2.8497 C.ar      1 <1>        -0.0299 
      7 C7         19.5049    3.9054   -6.9019 C.ar      1 <1>         0.0000 
      8 C8         20.6329    4.4212   -7.5456 C.ar      1 <1>         0.0000 
      9 C9         21.5514    5.1934   -6.8235 C.ar      1 <1>         0.0342 
     10 N10        21.2906    5.4860   -5.5318 N.ar      1 <1>         0.0000 
     11 H1         17.4492    3.0643   -5.3705 H         1 <1>         0.0000 
     12 C12        22.8345    5.7348   -7.4198 C.2       1 <1>        -0.0407 
     13 C13        23.4393    5.2295   -8.5046 C.2       1 <1>        -0.0550 
     14 C14        24.7091    5.8047   -9.1014 C.ar      1 <1>        -0.0281 
     15 C15        25.5596    4.9563   -9.8202 C.ar      1 <1>         0.0050 
     16 C16        26.7527    5.4346  -10.3700 C.ar      1 <1>        -0.0259 
     17 C17        27.1129    6.7777  -10.2066 C.ar      1 <1>         0.1254 
     18 C18        26.2599    7.6307   -9.5019 C.ar      1 <1>         0.1272 
     19 C19        25.0588    7.1542   -8.9681 C.ar      1 <1>        -0.0275 
     20 H2         17.1216    3.6239   -2.9822 H         1 <1>         0.0000 
     21 O21        28.3056    7.2840  -10.7339 O.3       1 <1>         0.0000 
     22 H3         20.7404    5.9479   -3.0211 H         1 <1>         0.0000 
     23 H4         18.7625    5.0670   -1.8023 H         1 <1>         0.0000 
     24 H5         18.8056    3.2865   -7.4557 H         1 <1>         0.0000 
     25 H6         20.7701    4.2195   -8.6013 H         1 <1>         0.0000 
     26 H7         23.2637    6.5806   -6.8861 H         1 <1>         0.0000 
     27 H8         23.0342    4.3505   -9.0017 H         1 <1>         0.0000 
     28 H9         25.2982    3.9112   -9.9538 H         1 <1>         0.0000 
     29 H10        27.3940    4.7544  -10.9218 H         1 <1>         0.0000 
     30 H11        26.5340    8.6728   -9.3723 H         1 <1>         0.0000 
     31 H12        24.4033    7.8528   -8.4610 H         1 <1>         0.0000 
     32 H13        28.8210    6.6487  -11.2182 H         1 <1>         0.0000 
@<TRIPOS>BOND
     1    1    2 ar   
     2    1    3 ar   
     3    3    4 ar   
     4    4    5 ar   
     5    6    5 ar   
     6    2    6 ar   
     7    3    7 ar   
     8    7    8 ar   
     9    8    9 ar   
    10    4   10 ar   
    11    9   10 ar   
    12    1   11 1    
    13    9   12 1    
    14   12   13 2    
    15   13   14 1    
    16   14   15 ar   
    17   15   16 ar   
    18   16   17 ar   
    19   18   17 ar   
    20   19   18 ar   
    21   14   19 ar   
    22    2   20 1    
    23   17   21 1    
    24    5   22 1    
    25    6   23 1    
    26    7   24 1    
    27    8   25 1    
    28   12   26 1    
    29   13   27 1    
    30   15   28 1    
    31   16   29 1    
    32   18   30 1    
    33   19   31 1    
    34   21   32 1    
@<TRIPOS>SUBSTRUCTURE
     1 ****        1 TEMP              0 ****  ****    0 ROOT 
@<TRIPOS>NORMAL
@<TRIPOS>FF_PBC
FORCE_FIELD_SETUP_FEATURE Force Field Setup information
v1.0  0 0.000000 0.000000 0.000000 0.000000 0.000000 0.000000 NONE 0 0 0 0 0 0 0 0 0 0 0 0 0
