#	Name:			PISM00775.1
#	Creating user name:	baoopengkun
#	Creation time:		Tue Nov 20 09:58:54 2018

#	Modifying user name:	baoopengkun
#	Modification time:	Tue Nov 20 10:28:02 2018

@<TRIPOS>MOLECULE
PISM00775.1
   49    52     1     2     0
SMALL
GAST_HUCK


@<TRIPOS>ATOM
      1 C1          5.0453    3.3148    2.4697 C.3       1 <1>        -0.0240 
      2 C2          6.4439    3.9666    2.5323 C.3       1 <1>        -0.0149 
      3 C3          6.5060    4.6719    1.2084 C.2       1 <1>        -0.0648 
      4 C4          5.4227    4.2496    0.2476 C.3       1 <1>         0.0394 
      5 C5          4.8281    3.0019    0.9642 C.3       1 <1>         0.0130 
      6 C6          7.4505    5.5740    0.9171 C.2       1 <1>        -0.1285 
      7 C7          4.3737    5.3785    0.0330 C.3       1 <1>         0.1096 
      8 C8          3.4016    2.6554    0.5775 C.2       1 <1>        -0.0675 
      9 C9          3.0488    2.7297   -0.8925 C.3       1 <1>        -0.0171 
     10 C10         2.4429    4.1214   -1.2133 C.3       1 <1>        -0.0329 
     11 C11         3.5361    5.2202   -1.2599 C.3       1 <1>         0.0177 
     12 C12         2.4662    2.2902    1.4669 C.2       1 <1>        -0.1286 
     13 O13         4.9773    6.6683   -0.1530 O.3       1 <1>        -0.2697 
     14 C14         4.1786    7.4136   -0.9221 C.2       1 <1>         0.2399 
     15 C15         3.0239    6.6612   -1.5200 C.3       1 <1>         0.0895 
     16 O16         4.3891    8.5925   -1.1504 O.2       1 <1>        -0.3700 
     17 C17         1.7057    7.0703   -0.8110 C.3       1 <1>         0.0751 
     18 O18         1.7655    6.7113    0.5810 O.3       1 <1>        -0.3320 
     19 C19         0.5947    7.0521    1.3440 C.3       1 <1>         0.2149 
     20 O20         0.8011    6.4769    2.6491 O.3       1 <1>        -0.2355 
     21 C21         0.8916    7.5070    3.4799 C.2       1 <1>         0.2491 
     22 O22         1.1062    7.3584    4.6708 O.2       1 <1>        -0.3691 
     23 C23         0.7037    8.8192    2.8733 C.2       1 <1>         0.0288 
     24 C24         0.5055    8.5420    1.5862 C.2       1 <1>        -0.0067 
     25 C25         0.7129   10.1650    3.5456 C.3       1 <1>        -0.0323 
     26 H1          4.2970    4.0468    2.8159 H         1 <1>         0.0323 
     27 H2          4.9919    2.4209    3.1129 H         1 <1>         0.0323 
     28 H3          7.2307    3.1956    2.5516 H         1 <1>         0.0462 
     29 H4          6.5669    4.6420    3.3944 H         1 <1>         0.0462 
     30 H5          5.8987    3.9848   -0.7102 H         1 <1>         0.0554 
     31 H6          5.4563    2.1290    0.7156 H         1 <1>         0.0527 
     32 H7          7.4842    6.0614   -0.0565 H         1 <1>         0.0075 
     33 H8          8.2110    5.8369    1.6514 H         1 <1>         0.0075 
     34 H9          3.7297    5.4495    0.9216 H         1 <1>         0.0686 
     35 H35         2.9471    6.8760   -2.5995 H         1 <1>         0.0581 
     36 H10         2.2923    1.9602   -1.1208 H         1 <1>         0.0460 
     37 H11         3.9213    2.5126   -1.5283 H         1 <1>         0.0460 
     38 H12         1.9501    4.0917   -2.1997 H         1 <1>         0.0297 
     39 H13         1.6769    4.3516   -0.4565 H         1 <1>         0.0297 
     40 H14         4.2336    4.9780   -2.0818 H         1 <1>         0.0362 
     41 H15         2.6482    2.2027    2.5355 H         1 <1>         0.0075 
     42 H16         1.4512    2.0575    1.1456 H         1 <1>         0.0075 
     43 H17         0.8614    6.5619   -1.3042 H         1 <1>         0.0593 
     44 H18         1.5788    8.1573   -0.9367 H         1 <1>         0.0593 
     45 H19        -0.3331    6.6369    0.9172 H         1 <1>         0.1143 
     46 H20         0.3112    9.2961    0.8253 H         1 <1>         0.0701 
     47 H21        -0.1360   10.7699    3.1934 H         1 <1>         0.0347 
     48 H22         1.6516   10.6866    3.3075 H         1 <1>         0.0347 
     49 H23         0.6366   10.0456    4.6368 H         1 <1>         0.0347 
@<TRIPOS>BOND
     1    2    1 1    
     2    2    3 1    
     3    3    4 1    
     4    4    5 1    
     5    1    5 1    
     6    3    6 2    
     7    4    7 1    
     8    5    8 1    
     9    8    9 1    
    10   11   10 1    
    11    9   10 1    
    12    7   11 1    
    13    8   12 2    
    14    7   13 1    
    15   13   14 1    
    16   14   15 1    
    17   11   15 1    
    18   14   16 2    
    19   15   17 1    
    20   17   18 1    
    21   18   19 1    
    22   19   20 1    
    23   20   21 1    
    24   21   22 2    
    25   21   23 1    
    26   23   24 2    
    27   19   24 1    
    28   23   25 1    
    29    1   26 1    
    30    1   27 1    
    31    2   28 1    
    32    2   29 1    
    33    4   30 1    
    34    5   31 1    
    35    6   32 1    
    36    6   33 1    
    37   15   35 1    
    38    7   34 1    
    39    9   36 1    
    40    9   37 1    
    41   10   38 1    
    42   10   39 1    
    43   11   40 1    
    44   12   41 1    
    45   12   42 1    
    46   17   43 1    
    47   17   44 1    
    48   19   45 1    
    49   24   46 1    
    50   25   47 1    
    51   25   48 1    
    52   25   49 1    
@<TRIPOS>SUBSTRUCTURE
     1 ****        2 TEMP              0 ****  ****    0 ROOT 
@<TRIPOS>NORMAL
@<TRIPOS>FF_PBC
FORCE_FIELD_SETUP_FEATURE Force Field Setup information
v1.0  0 0.000000 0.000000 0.000000 0.000000 0.000000 0.000000 NONE 0 0 0 0 1 0 0 0 0 0 0 0 0
@<TRIPOS>RENDERING_ATTRS
LINES           
1,2,3,4,5,6,7,8,9,10,11,12,13,14,15,16,17,18,35
