#	Name:			PISM00914
#	Creating user name:	baoopengkun
#	Creation time:		Fri Dec 14 10:31:16 2018

#	Modifying user name:	baoopengkun
#	Modification time:	Fri Dec 14 10:47:12 2018

@<TRIPOS>MOLECULE
PISM00914
   40    42     1     1     0
SMALL
GAST_HUCK


@<TRIPOS>ATOM
      1 C1         22.7985   11.7853   -7.2036 C.ar      1 <1>         0.0873 
      2 C2         23.5030   12.1567   -6.0515 C.ar      1 <1>        -0.0294 
      3 C3         24.4944   13.1493   -6.0968 C.ar      1 <1>        -0.0620 
      4 C4         24.8065   13.8049   -7.2950 C.ar      1 <1>        -0.0488 
      5 C5         24.0885   13.4363   -8.4322 C.ar      1 <1>         0.0636 
      6 C6         23.1077   12.4561   -8.3867 C.ar      1 <1>         0.0945 
      7 C7         22.5652   12.3582   -9.7902 C.2       1 <1>         0.2371 
      8 N8         23.2142   13.2276  -10.5883 N.am      1 <1>        -0.1423 
      9 C9         24.1270   13.9044   -9.8660 C.2       1 <1>         0.2414 
     10 O10        21.6786   11.5925  -10.1256 O.2       1 <1>        -0.3740 
     11 O11        24.8801   14.7652  -10.2869 O.2       1 <1>        -0.3670 
     12 C12        22.9404   13.4321  -11.9995 C.3       1 <1>         0.2213 
     13 O13        21.6741   14.1092  -12.1234 O.3       1 <1>        -0.2348 
     14 C14        20.8793   13.2510  -12.7516 C.2       1 <1>         0.2491 
     15 C15        21.4964   11.9839  -13.1283 C.2       1 <1>         0.0288 
     16 C16        22.7463   12.0998  -12.6839 C.2       1 <1>        -0.0059 
     17 C17        20.8635   10.8184  -13.8375 C.3       1 <1>        -0.0323 
     18 O18        19.7163   13.5159  -13.0033 O.2       1 <1>        -0.3691 
     19 N19        21.8546   10.8174   -7.1617 N.pl3     1 <1>        -0.2340 
     20 C20        22.0491    9.6270   -7.6603 C.2       1 <1>         0.2025 
     21 C21        23.3599    9.2553   -8.3186 C.3       1 <1>         0.0428 
     22 O22        21.1677    8.7868   -7.5901 O.2       1 <1>        -0.3787 
     23 C23        23.4451    7.7460   -8.6746 C.3       1 <1>        -0.0382 
     24 C24        24.8038    7.3946   -9.3353 C.3       1 <1>        -0.0631 
     25 H1         23.2774   11.6644   -5.1107 H         1 <1>         0.0578 
     26 H2         25.0291   13.4142   -5.1893 H         1 <1>         0.0632 
     27 H3         25.5739   14.5707   -7.3443 H         1 <1>         0.0584 
     28 H4         23.7310   14.0177  -12.4978 H         1 <1>         0.1152 
     29 H5         23.5187   11.3389  -12.7861 H         1 <1>         0.0702 
     30 H6         21.0957   10.8714  -14.9113 H         1 <1>         0.0347 
     31 H7         19.7716   10.8452  -13.7042 H         1 <1>         0.0347 
     32 H8         21.2477    9.8714  -13.4296 H         1 <1>         0.0347 
     33 H9         20.9525   11.0198   -6.7053 H         1 <1>         0.2134 
     34 H10        24.1846    9.5091   -7.6346 H         1 <1>         0.0511 
     35 H11        23.4755    9.8364   -9.2446 H         1 <1>         0.0511 
     36 H12        22.6280    7.4858   -9.3688 H         1 <1>         0.0288 
     37 H13        23.3220    7.1473   -7.7563 H         1 <1>         0.0288 
     38 H14        24.8395    6.3206   -9.5778 H         1 <1>         0.0231 
     39 H15        25.6357    7.6267   -8.6522 H         1 <1>         0.0231 
     40 H16        24.9392    7.9679  -10.2658 H         1 <1>         0.0231 
@<TRIPOS>BOND
     1    2    1 ar   
     2    2    3 ar   
     3    3    4 ar   
     4    4    5 ar   
     5    6    5 ar   
     6    1    6 ar   
     7    6    7 1    
     8    7    8 am   
     9    9    8 am   
    10    5    9 1    
    11    7   10 2    
    12    9   11 2    
    13    8   12 1    
    14   12   13 1    
    15   13   14 1    
    16   15   14 1    
    17   16   15 2    
    18   12   16 1    
    19   15   17 1    
    20   14   18 2    
    21    1   19 1    
    22   19   20 1    
    23   20   21 1    
    24   20   22 2    
    25   21   23 1    
    26   23   24 1    
    27    2   25 1    
    28    3   26 1    
    29    4   27 1    
    30   12   28 1    
    31   16   29 1    
    32   17   30 1    
    33   17   31 1    
    34   17   32 1    
    35   19   33 1    
    36   21   34 1    
    37   21   35 1    
    38   23   36 1    
    39   23   37 1    
    40   24   38 1    
    41   24   39 1    
    42   24   40 1    
@<TRIPOS>SUBSTRUCTURE
     1 ****        2 TEMP              0 ****  ****    0 ROOT 
@<TRIPOS>NORMAL
@<TRIPOS>FF_PBC
FORCE_FIELD_SETUP_FEATURE Force Field Setup information
v1.0  0 0.000000 0.000000 0.000000 0.000000 0.000000 0.000000 NONE 0 0 0 0 1 0 0 0 0 0 0 0 0
