#	Name:			PISM01091
#	Creating user name:	Qinrunwen
#	Creation time:		Mon Apr 01 13:26:30 2019

#	Modifying user name:	Qinrunwen
#	Modification time:	Mon Apr 01 13:30:26 2019

@<TRIPOS>MOLECULE
PISM01091
   40    41     1     1     0
SMALL
GAST_HUCK


@<TRIPOS>ATOM
      1 C1         11.2865   36.1773   -6.2860 C.ar      1 <1>        -0.0680 
      2 C2         10.8460   34.8810   -6.0034 C.ar      1 <1>        -0.0554 
      3 C3         11.0669   34.3210   -4.7408 C.ar      1 <1>         0.0052 
      4 C4         11.7527   35.0618   -3.7690 C.ar      1 <1>        -0.0554 
      5 C5         12.1917   36.3581   -4.0506 C.ar      1 <1>        -0.0680 
      6 C6         11.9576   36.9182   -5.3085 C.ar      1 <1>        -0.0684 
      7 C7         10.5401   32.9141   -4.4233 C.3       1 <1>         0.1868 
      8 C8         11.0833   31.9044   -5.4011 C.2       1 <1>         0.2550 
      9 N9         10.2348   31.3345   -6.2129 N.pl3     1 <1>        -0.1769 
     10 N10        10.6077   30.3878   -7.1060 N.2       1 <1>        -0.1980 
     11 C11        11.1724   29.3133   -6.7236 C.2       1 <1>         0.0289 
     12 C12        11.6051   28.2715   -7.7310 C.ar      1 <1>        -0.0201 
     13 C13        11.9493   26.9858   -7.2976 C.ar      1 <1>        -0.0611 
     14 C14        12.3763   26.0268   -8.2201 C.ar      1 <1>        -0.0311 
     15 C15        12.4750   26.3541   -9.5743 C.ar      1 <1>         0.0928 
     16 C16        12.1003   27.6273  -10.0131 C.ar      1 <1>        -0.0311 
     17 C17        11.6671   28.5856   -9.0924 C.ar      1 <1>        -0.0611 
     18 O18        12.9477   25.4085  -10.4842 O.3       1 <1>        -0.3198 
     19 C19        14.3125   25.6147  -10.8838 C.3       1 <1>         0.0600 
     20 O20         9.0964   32.8704   -4.4835 O.3       1 <1>        -0.3465 
     21 C21         8.4625   33.8026   -3.5866 C.3       1 <1>         0.0425 
     22 O22        12.2772   31.6533   -5.3849 O.2       1 <1>        -0.3715 
     23 H1         11.1066   36.6107   -7.2647 H         1 <1>         0.0600 
     24 H2         10.3267   34.3103   -6.7667 H         1 <1>         0.0562 
     25 H3         11.9463   34.6394   -2.7883 H         1 <1>         0.0562 
     26 H4         12.7143   36.9306   -3.2896 H         1 <1>         0.0600 
     27 H5         12.2954   37.9273   -5.5248 H         1 <1>         0.0561 
     28 H6         10.8779   32.5740   -3.4319 H         1 <1>         0.1009 
     29 H7          9.2416   31.6137   -6.1695 H         1 <1>         0.2317 
     30 H8         11.3462   29.1316   -5.6633 H         1 <1>         0.0785 
     31 H9         11.8840   26.7282   -6.2451 H         1 <1>         0.0598 
     32 H10        12.6340   25.0261   -7.8900 H         1 <1>         0.0549 
     33 H11        12.1469   27.8701  -11.0692 H         1 <1>         0.0549 
     34 H12        11.3846   29.5751   -9.4384 H         1 <1>         0.0598 
     35 H13        14.9852   25.5754  -10.0127 H         1 <1>         0.0579 
     36 H14        14.4372   26.5813  -11.3952 H         1 <1>         0.0579 
     37 H15        14.5892   24.8107  -11.5808 H         1 <1>         0.0579 
     38 H16         8.6231   34.8426   -3.9094 H         1 <1>         0.0528 
     39 H17         8.8159   33.6849   -2.5505 H         1 <1>         0.0528 
     40 H18         7.3828   33.5979   -3.6092 H         1 <1>         0.0528 
@<TRIPOS>BOND
     1    2    1 ar   
     2    2    3 ar   
     3    3    4 ar   
     4    4    5 ar   
     5    5    6 ar   
     6    1    6 ar   
     7    3    7 1    
     8    7    8 1    
     9    8    9 1    
    10    9   10 1    
    11   10   11 2    
    12   11   12 1    
    13   12   13 ar   
    14   13   14 ar   
    15   14   15 ar   
    16   15   16 ar   
    17   16   17 ar   
    18   12   17 ar   
    19   15   18 1    
    20   18   19 1    
    21    7   20 1    
    22   20   21 1    
    23    8   22 2    
    24    1   23 1    
    25    2   24 1    
    26    4   25 1    
    27    5   26 1    
    28    6   27 1    
    29    7   28 1    
    30    9   29 1    
    31   11   30 1    
    32   13   31 1    
    33   14   32 1    
    34   16   33 1    
    35   17   34 1    
    36   19   35 1    
    37   19   36 1    
    38   19   37 1    
    39   21   38 1    
    40   21   39 1    
    41   21   40 1    
@<TRIPOS>SUBSTRUCTURE
     1 ****        2 TEMP              0 ****  ****    0 ROOT 
@<TRIPOS>NORMAL
@<TRIPOS>FF_PBC
FORCE_FIELD_SETUP_FEATURE Force Field Setup information
v1.0  0 0.000000 0.000000 0.000000 0.000000 0.000000 0.000000 NONE 0 0 0 0 1 0 0 0 0 0 0 0 0
