#	Name:			PISM00294
#	Creating user name:	baoopengkun
#	Creation time:		Sun Dec 16 03:54:45 2018

#	Modifying user name:	baoopengkun
#	Modification time:	Sun Dec 16 03:54:54 2018

@<TRIPOS>MOLECULE
PISM00294
   36    38     1     1     0
SMALL
GAST_HUCK


@<TRIPOS>ATOM
      1 C1        -12.4564   18.8270   52.4278 C.3       1 <1>        -0.0307 
      2 C2        -12.4137   17.4305   53.1013 C.3       1 <1>        -0.0490 
      3 C3        -12.3012   16.3200   52.0245 C.3       1 <1>        -0.0307 
      4 C4        -13.4811   16.4288   51.0276 C.3       1 <1>         0.0372 
      5 N5        -13.4913   17.7907   50.4843 N.am      1 <1>        -0.2861 
      6 C6        -13.6304   18.9129   51.4192 C.3       1 <1>         0.0372 
      7 C7        -13.3962   18.0056   49.1374 C.2       1 <1>         0.1064 
      8 S8        -13.5838   19.5553   48.4218 S.2       1 <1>        -0.2661 
      9 C9        -13.1214   16.9320   48.1611 C.2       1 <1>         0.1637 
     10 O10       -13.9924   16.6733   47.1814 O.3       1 <1>        -0.2442 
     11 C11       -13.3856   15.6708   46.5356 C.2       1 <1>         0.1306 
     12 C12       -12.2054   15.2887   47.0346 C.2       1 <1>        -0.0405 
     13 C13       -12.0197   16.1803   48.1763 C.2       1 <1>        -0.0368 
     14 C14       -14.0522   15.0534   45.3208 C.ar      1 <1>         0.0167 
     15 C15       -15.2827   15.5717   44.8979 C.ar      1 <1>        -0.0377 
     16 C16       -15.9439   15.0417   43.7866 C.ar      1 <1>         0.0539 
     17 C17       -15.3761   13.9792   43.0790 C.ar      1 <1>         0.0534 
     18 C18       -14.1485   13.4554   43.4905 C.ar      1 <1>        -0.0478 
     19 C19       -13.4912   13.9878   44.6040 C.ar      1 <1>        -0.0515 
     20 Cl20      -16.1908   13.3015   41.6832 Cl        1 <1>        -0.0705 
     21 Cl21      -17.4831   15.7149   43.2878 Cl        1 <1>        -0.0704 
     22 H1        -11.5114   18.9979   51.8858 H         1 <1>         0.0287 
     23 H2        -12.5595   19.6105   53.1975 H         1 <1>         0.0287 
     24 H3        -13.3310   17.2800   53.6944 H         1 <1>         0.0267 
     25 H4        -11.5508   17.3732   53.7861 H         1 <1>         0.0267 
     26 H5        -12.3016   15.3279   52.5064 H         1 <1>         0.0287 
     27 H6        -11.3533   16.4370   51.4747 H         1 <1>         0.0287 
     28 H7        -14.4254   16.2676   51.5724 H         1 <1>         0.0545 
     29 H8        -13.4125   15.6228   50.2829 H         1 <1>         0.0545 
     30 H9        -14.5884   18.8157   51.9545 H         1 <1>         0.0545 
     31 H10       -13.6101   19.9156   50.9676 H         1 <1>         0.0545 
     32 H11       -11.5043   14.5181   46.7217 H         1 <1>         0.0425 
     33 H12       -11.1794   16.2198   48.8679 H         1 <1>         0.0486 
     34 H13       -15.7412   16.3976   45.4315 H         1 <1>         0.0623 
     35 H14       -13.7057   12.6308   42.9406 H         1 <1>         0.0620 
     36 H15       -12.5421   13.5549   44.8945 H         1 <1>         0.0618 
@<TRIPOS>BOND
     1    2    1 1    
     2    2    3 1    
     3    3    4 1    
     4    4    5 1    
     5    5    6 1    
     6    1    6 1    
     7    5    7 am   
     8    7    8 2    
     9    7    9 1    
    10    9   10 1    
    11   10   11 1    
    12   11   12 2    
    13   12   13 1    
    14    9   13 2    
    15   11   14 1    
    16   14   15 ar   
    17   15   16 ar   
    18   16   17 ar   
    19   17   18 ar   
    20   18   19 ar   
    21   14   19 ar   
    22   17   20 1    
    23   16   21 1    
    24    1   22 1    
    25    1   23 1    
    26    2   24 1    
    27    2   25 1    
    28    3   26 1    
    29    3   27 1    
    30    4   28 1    
    31    4   29 1    
    32    6   30 1    
    33    6   31 1    
    34   12   32 1    
    35   13   33 1    
    36   15   34 1    
    37   18   35 1    
    38   19   36 1    
@<TRIPOS>SUBSTRUCTURE
     1 ****        2 TEMP              0 ****  ****    0 ROOT 
@<TRIPOS>NORMAL
@<TRIPOS>FF_PBC
FORCE_FIELD_SETUP_FEATURE Force Field Setup information
v1.0  0 0.000000 0.000000 0.000000 0.000000 0.000000 0.000000 NONE 0 0 0 0 1 0 0 0 0 0 0 0 0
