#	Name:			PISM01088
#	Creating user name:	Qinrunwen
#	Creation time:		Mon Apr 01 16:33:08 2019

#	Modifying user name:	Qinrunwen
#	Modification time:	Mon Apr 01 16:34:38 2019

@<TRIPOS>MOLECULE
PISM01088
   29    30     1     1     0
SMALL
GAST_HUCK


@<TRIPOS>ATOM
      1 C1         13.4535   32.2767    1.5705 C.2       1 <1>         0.0000 
      2 O2         12.3842   31.8419    1.9651 O.2       1 <1>         0.0000 
      3 C3         13.9693   31.9675    0.1798 C.ar      1 <1>         0.0795 
      4 C4         13.4020   30.9653   -0.6205 C.ar      1 <1>         0.0545 
      5 C5         12.3327   30.0307   -0.0980 C.2       1 <1>         0.1629 
      6 O6         12.5069   29.4765    0.9754 O.2       1 <1>        -0.3652 
      7 C7         15.0390   32.7188   -0.3224 C.ar      1 <1>        -0.0353 
      8 C8         15.4864   32.5349   -1.6334 C.ar      1 <1>        -0.0516 
      9 C9         14.8699   31.5863   -2.4520 C.ar      1 <1>        -0.0518 
     10 C10        13.8360   30.7986   -1.9404 C.ar      1 <1>        -0.0379 
     11 O11        14.1614   33.0494    2.3905 O.3       1 <1>         0.0000 
     12 C12        11.0669   29.7584   -0.8838 C.ar      1 <1>         0.0281 
     13 C13        10.2996   28.6222   -0.6024 C.ar      1 <1>        -0.0418 
     14 C14         9.1398   28.3387   -1.3340 C.ar      1 <1>        -0.0264 
     15 C15         8.7461   29.2080   -2.3580 C.ar      1 <1>         0.0458 
     16 C16         9.4993   30.3518   -2.6343 C.ar      1 <1>        -0.0488 
     17 C17        10.6475   30.6349   -1.8905 C.ar      1 <1>        -0.0498 
     18 Cl18        7.3079   28.8779   -3.3050 Cl        1 <1>        -0.0728 
     19 C19         8.3013   27.0907   -1.0267 C.3       1 <1>        -0.0296 
     20 H1         15.5294   33.4595    0.3009 H         1 <1>         0.0684 
     21 H2         16.3104   33.1294   -2.0164 H         1 <1>         0.0665 
     22 H3         15.1953   31.4590   -3.4800 H         1 <1>         0.0665 
     23 H4         13.3761   30.0470   -2.5746 H         1 <1>         0.0682 
     24 H6         10.6113   27.9520    0.1915 H         1 <1>         0.0607 
     25 H7          9.1898   31.0235   -3.4286 H         1 <1>         0.0617 
     26 H8         11.2026   31.5433   -2.0994 H         1 <1>         0.0612 
     27 H9          8.2462   26.4575   -1.9249 H         1 <1>         0.0393 
     28 H10         7.2847   27.3975   -0.7381 H         1 <1>         0.0393 
     29 H11         8.7305   26.4945   -0.2076 H         1 <1>         0.0393 
@<TRIPOS>BOND
     1    3    1 1    
     2    1    2 2    
     3    3    4 ar   
     4    4    5 1    
     5    5    6 2    
     6    3    7 ar   
     7    7    8 ar   
     8    8    9 ar   
     9   10    9 ar   
    10    4   10 ar   
    11    1   11 1    
    12    5   12 1    
    13   12   13 ar   
    14   13   14 ar   
    15   14   15 ar   
    16   16   15 ar   
    17   17   16 ar   
    18   12   17 ar   
    19   15   18 1    
    20   14   19 1    
    21    7   20 1    
    22    8   21 1    
    23    9   22 1    
    24   10   23 1    
    25   13   24 1    
    26   16   25 1    
    27   17   26 1    
    28   19   27 1    
    29   19   28 1    
    30   19   29 1    
@<TRIPOS>SUBSTRUCTURE
     1 ****        3 TEMP              0 ****  ****    0 ROOT 
@<TRIPOS>NORMAL
@<TRIPOS>FF_PBC
FORCE_FIELD_SETUP_FEATURE Force Field Setup information
v1.0  0 0.000000 0.000000 0.000000 0.000000 0.000000 0.000000 NONE 0 0 0 0 0 0 0 0 0 0 0 0 0
