#	Name:			PISM00975
#	Creating user name:	baoopengkun
#	Creation time:		Thu Dec 13 11:36:31 2018

#	Modifying user name:	baoopengkun
#	Modification time:	Thu Dec 13 11:39:00 2018

@<TRIPOS>MOLECULE
PISM00975
   67    68     1     1     0
SMALL
GAST_HUCK


@<TRIPOS>ATOM
      1 C1         -2.0569   17.3966   -4.0774 C.ar      1 <1>        -0.0653 
      2 C2         -1.3588   16.9597   -5.2099 C.ar      1 <1>        -0.0477 
      3 C3         -0.5048   15.8470   -5.1205 C.ar      1 <1>        -0.0480 
      4 C4         -0.3119   15.2524   -3.8652 C.ar      1 <1>        -0.0733 
      5 C5         -1.0155   15.6904   -2.7405 C.ar      1 <1>        -0.0738 
      6 C6         -1.9171   16.7512   -2.8459 C.ar      1 <1>        -0.0563 
      7 C7         -1.5845   17.7475   -6.5141 C.3       1 <1>        -0.0260 
      8 C8         -2.9195   17.3019   -7.1625 C.3       1 <1>        -0.0565 
      9 C9          0.1940   15.2986   -6.3835 C.3       1 <1>        -0.0276 
     10 C10         0.8463   13.8955   -6.2562 C.3       1 <1>        -0.0573 
     11 C11        -2.7457   17.1894   -1.6311 C.3       1 <1>        -0.0210 
     12 C12        -3.9665   16.2485   -1.4603 C.3       1 <1>        -0.0108 
     13 C13        -4.8284   16.2131   -2.7490 C.3       1 <1>         0.1099 
     14 O14        -5.4638   17.4745   -3.0015 O.3       1 <1>        -0.2703 
     15 C15        -6.6662   16.9684   -2.8387 C.2       1 <1>         0.2401 
     16 C16        -6.2406   15.5610   -2.5639 C.3       1 <1>         0.0907 
     17 O17        -7.7622   17.4995   -2.8868 O.2       1 <1>        -0.3700 
     18 C18        -6.6302   14.5457   -3.6695 C.3       1 <1>        -0.0291 
     19 C19        -8.1351   14.1644   -3.5657 C.3       1 <1>        -0.0505 
     20 C20        -8.6223   13.2339   -4.7169 C.3       1 <1>        -0.0529 
     21 C21        -9.2271   13.9383   -5.9730 C.3       1 <1>        -0.0531 
     22 C22        -8.2447   14.8003   -6.8215 C.3       1 <1>        -0.0531 
     23 C23        -8.2317   16.3034   -6.4144 C.3       1 <1>        -0.0531 
     24 C24        -7.0943   17.0757   -7.1434 C.3       1 <1>        -0.0531 
     25 C25        -7.0262   18.5877   -6.7680 C.3       1 <1>        -0.0533 
     26 C26        -7.7811   19.5370   -7.7448 C.3       1 <1>        -0.0559 
     27 C27        -9.3027   19.2634   -7.8560 C.3       1 <1>        -0.0653 
     28 H1         -2.7266   18.2470   -4.1551 H         1 <1>         0.0477 
     29 H2          0.3864   14.4365   -3.7299 H         1 <1>         0.0521 
     30 H3         -0.8617   15.2008   -1.7839 H         1 <1>         0.0482 
     31 H4         -0.7582   17.6285   -7.2297 H         1 <1>         0.0408 
     32 H5         -1.6397   18.8233   -6.2800 H         1 <1>         0.0408 
     33 H6         -3.1060   17.8699   -8.0874 H         1 <1>         0.0250 
     34 H7         -3.7538   17.4797   -6.4671 H         1 <1>         0.0250 
     35 H8         -2.8914   16.2291   -7.4067 H         1 <1>         0.0250 
     36 H9          0.9721   16.0155   -6.6915 H         1 <1>         0.0396 
     37 H10        -0.5586   15.2221   -7.1843 H         1 <1>         0.0396 
     38 H11         0.1146   13.1628   -5.8809 H         1 <1>         0.0249 
     39 H12         1.7187   13.9213   -5.5850 H         1 <1>         0.0249 
     40 H13         1.1981   13.5561   -7.2437 H         1 <1>         0.0249 
     41 H14        -3.0958   18.2264   -1.7584 H         1 <1>         0.0413 
     42 H15        -2.1159   17.1598   -0.7272 H         1 <1>         0.0413 
     43 H16        -4.5725   16.6031   -0.6104 H         1 <1>         0.0316 
     44 H17        -3.6232   15.2247   -1.2410 H         1 <1>         0.0316 
     45 H18        -4.2906   15.8388   -3.6364 H         1 <1>         0.0680 
     46 H19        -6.4795   15.2499   -1.5355 H         1 <1>         0.0583 
     47 H20        -6.3843   14.9664   -4.6524 H         1 <1>         0.0294 
     48 H21        -6.0138   13.6418   -3.5349 H         1 <1>         0.0294 
     49 H22        -8.7801   15.0545   -3.5129 H         1 <1>         0.0267 
     50 H23        -8.2479   13.6315   -2.6054 H         1 <1>         0.0267 
     51 H24        -9.4321   12.6033   -4.3080 H         1 <1>         0.0265 
     52 H25        -7.8075   12.5557   -5.0187 H         1 <1>         0.0265 
     53 H26       -10.1015   14.5436   -5.6829 H         1 <1>         0.0265 
     54 H27        -9.5983   13.1267   -6.6242 H         1 <1>         0.0265 
     55 H28        -7.2409   14.3504   -6.7837 H         1 <1>         0.0265 
     56 H29        -8.5643   14.7756   -7.8780 H         1 <1>         0.0265 
     57 H30        -8.0880   16.4151   -5.3331 H         1 <1>         0.0265 
     58 H31        -9.2151   16.7357   -6.6459 H         1 <1>         0.0265 
     59 H32        -7.1834   16.9608   -8.2354 H         1 <1>         0.0265 
     60 H33        -6.1494   16.5964   -6.8364 H         1 <1>         0.0265 
     61 H34        -5.9693   18.9059   -6.7922 H         1 <1>         0.0265 
     62 H35        -7.3857   18.7411   -5.7372 H         1 <1>         0.0265 
     63 H36        -7.3326   19.4670   -8.7503 H         1 <1>         0.0263 
     64 H37        -7.6441   20.5728   -7.3885 H         1 <1>         0.0263 
     65 H38        -9.4914   18.3127   -8.3765 H         1 <1>         0.0230 
     66 H39        -9.7854   20.0647   -8.4380 H         1 <1>         0.0230 
     67 H40        -9.7630   19.2337   -6.8563 H         1 <1>         0.0230 
@<TRIPOS>BOND
     1    2    1 ar   
     2    2    3 ar   
     3    3    4 ar   
     4    4    5 ar   
     5    5    6 ar   
     6    1    6 ar   
     7    2    7 1    
     8    7    8 1    
     9    3    9 1    
    10    9   10 1    
    11    6   11 1    
    12   11   12 1    
    13   12   13 1    
    14   13   14 1    
    15   14   15 1    
    16   15   16 1    
    17   13   16 1    
    18   15   17 2    
    19   16   18 1    
    20   18   19 1    
    21   19   20 1    
    22   20   21 1    
    23   21   22 1    
    24   22   23 1    
    25   23   24 1    
    26   24   25 1    
    27   25   26 1    
    28   26   27 1    
    29    1   28 1    
    30    4   29 1    
    31    5   30 1    
    32    7   31 1    
    33    7   32 1    
    34    8   33 1    
    35    8   34 1    
    36    8   35 1    
    37    9   36 1    
    38    9   37 1    
    39   10   38 1    
    40   10   39 1    
    41   10   40 1    
    42   11   41 1    
    43   11   42 1    
    44   12   43 1    
    45   12   44 1    
    46   13   45 1    
    47   16   46 1    
    48   18   47 1    
    49   18   48 1    
    50   19   49 1    
    51   19   50 1    
    52   20   51 1    
    53   20   52 1    
    54   21   53 1    
    55   21   54 1    
    56   22   55 1    
    57   22   56 1    
    58   23   57 1    
    59   23   58 1    
    60   24   59 1    
    61   24   60 1    
    62   25   61 1    
    63   25   62 1    
    64   26   63 1    
    65   26   64 1    
    66   27   65 1    
    67   27   66 1    
    68   27   67 1    
@<TRIPOS>SUBSTRUCTURE
     1 ****        2 TEMP              0 ****  ****    0 ROOT 
@<TRIPOS>NORMAL
@<TRIPOS>FF_PBC
FORCE_FIELD_SETUP_FEATURE Force Field Setup information
v1.0  0 0.000000 0.000000 0.000000 0.000000 0.000000 0.000000 NONE 0 0 0 0 1 0 0 0 0 0 0 0 0
