#	Name:			PISM00442
#	Creating user name:	baoopengkun
#	Creation time:		Sun Mar 31 16:28:34 2019

#	Modifying user name:	baoopengkun
#	Modification time:	Sun Mar 31 16:31:50 2019

@<TRIPOS>MOLECULE
PISM00442
   43    43     1     1     0
SMALL
GAST_HUCK


@<TRIPOS>ATOM
      1 C1         -2.6493    1.3165   -1.8940 C.3       1 <1>        -0.0168 
      2 C2         -2.9738    2.6684   -2.5976 C.3       1 <1>         0.0207 
      3 C3         -4.4483    2.9437   -2.5441 C.2       1 <1>         0.1467 
      4 C4         -5.2768    2.3669   -1.4760 C.2       1 <1>         0.0132 
      5 C5         -4.7494    1.6184   -0.4973 C.2       1 <1>        -0.0667 
      6 C6         -3.2536    1.3359   -0.4473 C.3       1 <1>         0.0391 
      7 C7         -3.2504    0.1348   -2.7258 C.3       1 <1>         0.0416 
      8 C8         -1.1001    1.1462   -1.8577 C.3       1 <1>        -0.0688 
      9 O9         -4.9672    3.6491   -3.3939 O.2       1 <1>        -0.3649 
     10 O10        -2.9750    0.0607    0.1604 O.3       1 <1>        -0.4653 
     11 C11        -2.6293    2.4399    0.3818 C.2       1 <1>        -0.0860 
     12 C12        -1.5477    2.2571    1.1519 C.2       1 <1>        -0.0144 
     13 C13        -0.9149    3.3255    1.9603 C.2       1 <1>         0.0276 
     14 O14        -2.7259   -1.1371   -2.2886 O.3       1 <1>        -0.3838 
     15 C15        -0.4014    3.0105    3.1610 C.2       1 <1>         0.0681 
     16 C16         0.2450    3.9460    4.1137 C.2       1 <1>         0.2775 
     17 O17         0.1657    5.1514    3.9563 O.2       1 <1>        -0.3439 
     18 O18         0.9260    3.5080    5.1779 O.3       1 <1>        -0.2912 
     19 C19        -5.6158    1.0396    0.5997 C.3       1 <1>        -0.0367 
     20 C20        -3.2709   -2.2654   -2.9985 C.3       1 <1>         0.0364 
     21 H1         -2.6487    2.6401   -3.6492 H         1 <1>         0.0476 
     22 H2         -2.4615    3.5145   -2.1161 H         1 <1>         0.0476 
     23 H3         -6.3439    2.5805   -1.5210 H         1 <1>         0.0970 
     24 H4         -2.9783    0.2594   -3.7860 H         1 <1>         0.0551 
     25 H5         -4.3485    0.1329   -2.6546 H         1 <1>         0.0551 
     26 H6         -0.8215    0.2400   -1.2992 H         1 <1>         0.0222 
     27 H7         -0.6066    2.0077   -1.3843 H         1 <1>         0.0222 
     28 H8         -0.7033    1.0536   -2.8805 H         1 <1>         0.0222 
     29 H9         -3.2448   -0.0219    1.0674 H         1 <1>         0.1803 
     30 H10        -3.0934    3.4254    0.3416 H         1 <1>         0.0537 
     31 C31        -0.8519    4.7338    1.4106 C.3       1 <1>        -0.0121 
     32 H11        -1.0990    1.2637    1.1922 H         1 <1>         0.1123 
     33 H12        -0.4680    1.9712    3.4810 H         1 <1>         0.1013 
     34 H13         0.9781    2.5647    5.2664 H         1 <1>         0.2519 
     35 H14        -6.6588    1.3847    0.5371 H         1 <1>         0.0416 
     36 H15        -5.2221    1.3410    1.5819 H         1 <1>         0.0416 
     37 H16        -5.6211   -0.0585    0.5280 H         1 <1>         0.0416 
     38 H17        -3.0520   -2.2085   -4.0759 H         1 <1>         0.0523 
     39 H18        -4.3586   -2.3434   -2.8477 H         1 <1>         0.0523 
     40 H19        -2.7985   -3.1728   -2.5947 H         1 <1>         0.0523 
     41 H20         0.1670    5.1388    1.5027 H         1 <1>         0.0431 
     42 H21        -1.5527    5.3817    1.9584 H         1 <1>         0.0431 
     43 H22        -1.1067    4.7651    0.3410 H         1 <1>         0.0431 
@<TRIPOS>BOND
     1    2    1 1    
     2    2    3 1    
     3    3    4 1    
     4    4    5 2    
     5    5    6 1    
     6    1    6 1    
     7    1    7 1    
     8    1    8 1    
     9    3    9 2    
    10    6   10 1    
    11    6   11 1    
    12   11   12 2    
    13   12   13 1    
    14    7   14 1    
    15   13   15 2    
    16   15   16 1    
    17   16   17 2    
    18   16   18 1    
    19    5   19 1    
    20   14   20 1    
    21    2   21 1    
    22    2   22 1    
    23    4   23 1    
    24    7   24 1    
    25    7   25 1    
    26    8   26 1    
    27    8   27 1    
    28    8   28 1    
    29   10   29 1    
    30   11   30 1    
    31   13   31 1    
    32   12   32 1    
    33   15   33 1    
    34   18   34 1    
    35   19   35 1    
    36   19   36 1    
    37   19   37 1    
    38   20   38 1    
    39   20   39 1    
    40   20   40 1    
    41   31   41 1    
    42   31   42 1    
    43   31   43 1    
@<TRIPOS>SUBSTRUCTURE
     1 ****        2 TEMP              0 ****  ****    0 ROOT 
@<TRIPOS>NORMAL
@<TRIPOS>FF_PBC
FORCE_FIELD_SETUP_FEATURE Force Field Setup information
v1.0  0 0.000000 0.000000 0.000000 0.000000 0.000000 0.000000 NONE 0 0 0 0 1 0 0 0 0 0 0 0 0
