#	Name:			PISM01162
#	Creating user name:	baoopengkun
#	Creation time:		Tue Dec 18 16:02:55 2018

#	Modifying user name:	baoopengkun
#	Modification time:	Tue Dec 18 16:03:42 2018

@<TRIPOS>MOLECULE
PISM01162
   29    30     1     1     0
SMALL
GAST_HUCK


@<TRIPOS>ATOM
      1 O1          3.2682    6.0456    4.7493 O.2       1 <1>        -0.3688 
      2 C2          4.0047    6.6684    4.0010 C.2       1 <1>         0.2496 
      3 O3          5.2265    6.2342    3.6898 O.3       1 <1>        -0.2915 
      4 C4          3.5950    7.9727    3.3644 C.3       1 <1>         0.1210 
      5 C5          4.6376    9.0804    3.6195 C.3       1 <1>         0.0311 
      6 S6          3.7540   10.5891    3.1304 S.3       1 <1>        -0.1260 
      7 C7          2.0959    9.8639    3.3545 C.3       1 <1>         0.0896 
      8 N8          2.3483    8.5273    3.9303 N.3       1 <1>        -0.2736 
      9 C9          1.3813    9.9098    1.9914 C.ar      1 <1>         0.0162 
     10 C10         1.2516   11.1466    1.3487 C.ar      1 <1>        -0.0570 
     11 C11         0.6572   11.2346    0.0881 C.ar      1 <1>        -0.0054 
     12 C12         0.1766   10.0795   -0.5312 C.ar      1 <1>        -0.0680 
     13 C13         0.2755    8.8457    0.1179 C.ar      1 <1>        -0.0365 
     14 C14         0.8625    8.7559    1.3877 C.ar      1 <1>         0.0979 
     15 O15         0.9416    7.5368    2.0779 O.3       1 <1>        -0.3228 
     16 Br16        0.5075   12.8755   -0.7587 Br        1 <1>        -0.0618 
     17 H1          5.4149    5.4101    4.1255 H         1 <1>         0.2540 
     18 H2          3.4942    7.8020    2.2793 H         1 <1>         0.0729 
     19 H3          5.5644    8.9434    3.0412 H         1 <1>         0.0420 
     20 H4          4.8720    9.1450    4.6932 H         1 <1>         0.0420 
     21 H5          1.5271   10.4664    4.0797 H         1 <1>         0.0718 
     22 H6          1.5118    7.8580    3.7662 H         1 <1>         0.1283 
     23 H7          1.6137   12.0503    1.8280 H         1 <1>         0.0552 
     24 H8         -0.2749   10.1418   -1.5165 H         1 <1>         0.0558 
     25 H25        -0.1142    7.9714   -0.3884 H         1 <1>         0.0529 
     26 C26         0.6001    6.2788    1.4734 C.3       1 <1>         0.0585 
     27 H9          1.2109    6.0939    0.5764 H         1 <1>         0.0576 
     28 H10        -0.4704    6.2348    1.2216 H         1 <1>         0.0576 
     29 H11         0.8135    5.4885    2.2084 H         1 <1>         0.0576 
@<TRIPOS>BOND
     1    2    1 2    
     2    2    3 1    
     3    2    4 1    
     4    4    5 1    
     5    5    6 1    
     6    6    7 1    
     7    7    8 1    
     8    4    8 1    
     9    7    9 1    
    10    9   10 ar   
    11   10   11 ar   
    12   11   12 ar   
    13   12   13 ar   
    14   13   14 ar   
    15    9   14 ar   
    16   14   15 1    
    17   11   16 1    
    18    3   17 1    
    19    4   18 1    
    20    5   19 1    
    21    5   20 1    
    22    7   21 1    
    23    8   22 1    
    24   10   23 1    
    25   12   24 1    
    26   13   25 1    
    27   15   26 1    
    28   26   27 1    
    29   26   28 1    
    30   26   29 1    
@<TRIPOS>SUBSTRUCTURE
     1 ****        2 TEMP              0 ****  ****    0 ROOT 
@<TRIPOS>NORMAL
@<TRIPOS>FF_PBC
FORCE_FIELD_SETUP_FEATURE Force Field Setup information
v1.0  0 0.000000 0.000000 0.000000 0.000000 0.000000 0.000000 NONE 0 0 0 0 1 0 0 0 0 0 0 0 0
