#	Name:			PISM00877
#	Creating user name:	baoopengkun
#	Creation time:		Thu Dec 13 23:15:37 2018

#	Modifying user name:	baoopengkun
#	Modification time:	Fri Dec 14 00:06:13 2018

@<TRIPOS>MOLECULE
PISM00877
   26    27     1     1     0
SMALL
GAST_HUCK


@<TRIPOS>ATOM
      1 N1          3.8780    0.7696   -1.3223 N.pl3     1 <1>         0.1182 
      2 C2          3.0500    2.0184   -3.1940 C.ar      1 <1>        -0.0315 
      3 C3          2.8962    2.1806   -4.5735 C.ar      1 <1>         0.0170 
      4 C4          3.4176    1.2282   -5.4507 C.ar      1 <1>        -0.0702 
      5 C5          4.0987    0.1221   -4.9387 C.ar      1 <1>        -0.0430 
      6 C6          4.2673   -0.0304   -3.5596 C.ar      1 <1>         0.1233 
      7 C7          3.7352    0.9136   -2.6674 C.ar      1 <1>         0.1609 
      8 O8          3.6575    1.7326   -0.6204 O.2       1 <1>        -0.1159 
      9 O9          4.9762   -1.1352   -3.0898 O.3       1 <1>        -0.2764 
     10 C10         6.3826   -0.8893   -2.9650 C.3       1 <1>         0.2332 
     11 O11         6.9331   -0.5333   -4.2490 O.3       1 <1>        -0.2317 
     12 C12         7.7539   -1.5271   -4.5640 C.2       1 <1>         0.2494 
     13 C13         7.8733   -2.5836   -3.5648 C.2       1 <1>         0.0291 
     14 C14         7.0494   -2.1905   -2.5954 C.2       1 <1>        -0.0024 
     15 C15         8.7237   -3.8234   -3.6147 C.3       1 <1>        -0.0323 
     16 O16         8.3684   -1.5448   -5.6165 O.2       1 <1>        -0.3691 
     17 H1          2.6219    2.7692   -2.5385 H         1 <1>         0.0488 
     18 Cl18        2.0482    3.5781   -5.2033 Cl        1 <1>        -0.0844 
     19 H3          3.2940    1.3482   -6.5224 H         1 <1>         0.0484 
     20 H4          6.6055   -0.1073   -2.2201 H         1 <1>         0.1194 
     21 H5          6.8710   -2.7317   -1.6670 H         1 <1>         0.0705 
     22 H6          8.0874   -4.7146   -3.5083 H         1 <1>         0.0347 
     23 H7          9.4570   -3.8028   -2.7949 H         1 <1>         0.0347 
     24 H8          9.2609   -3.8808   -4.5733 H         1 <1>         0.0347 
     25 O25         4.2151   -0.3092   -0.8872 O.2       1 <1>        -0.1159 
     26 H2          4.5037   -0.6257   -5.6131 H         1 <1>         0.0503 
@<TRIPOS>BOND
     1    7    1 1    
     2    3    2 ar   
     3    4    3 ar   
     4    5    4 ar   
     5    6    5 ar   
     6    6    7 ar   
     7    2    7 ar   
     8    1    8 2    
     9    6    9 1    
    10    9   10 1    
    11   10   11 1    
    12   11   12 1    
    13   12   13 1    
    14   13   14 2    
    15   10   14 1    
    16   13   15 1    
    17   12   16 2    
    18    2   17 1    
    19    3   18 1    
    20    4   19 1    
    21   10   20 1    
    22   14   21 1    
    23   15   22 1    
    24   15   23 1    
    25   15   24 1    
    26    1   25 2    
    27    5   26 1    
@<TRIPOS>SUBSTRUCTURE
     1 ****        2 TEMP              0 ****  ****    0 ROOT 
@<TRIPOS>NORMAL
@<TRIPOS>FF_PBC
FORCE_FIELD_SETUP_FEATURE Force Field Setup information
v1.0  0 0.000000 0.000000 0.000000 0.000000 0.000000 0.000000 NONE 0 0 0 0 1 0 0 0 0 0 0 0 0
