#	Name:			PISM00152
#	Creating user name:	14062
#	Creation time:		Wed Jun 19 15:25:24 2019

#	Modifying user name:	14062
#	Modification time:	Wed Jun 19 15:27:21 2019

@<TRIPOS>MOLECULE
PISM00152
   22    23     1     1     0
SMALL
GAST_HUCK


@<TRIPOS>ATOM
      1 C1         -0.7976   -6.3164   -0.6615 C.2       1 BENZYL      0.0193 
      2 N2          0.2258   -5.7519   -0.0713 N.pl3     1 BENZYL     -0.2884 
      3 C2          1.3929   -6.1123   -0.6404 C.ar      1 BENZYL      0.0606 
      4 C3          1.1440   -6.9808   -1.6852 C.ar      1 BENZYL     -0.0193 
      5 C4          2.1658   -7.5265   -2.4602 C.ar      1 BENZYL     -0.0746 
      6 C5          3.4746   -7.1489   -2.1321 C.ar      1 BENZYL     -0.0792 
      7 C6          3.7322   -6.2637   -1.0726 C.ar      1 BENZYL     -0.0767 
      8 C7          2.6902   -5.7273   -0.3036 C.ar      1 BENZYL     -0.0442 
      9 C9         -0.3590   -7.0908   -1.6695 C.2       1 BENZYL     -0.0261 
     10 C10        -1.1636   -7.9290   -2.6265 C.3       1 BENZYL      0.0649 
     11 C11        -2.6412   -7.6336   -2.5259 C.2       1 BENZYL      0.2364 
     12 O12        -3.4182   -8.4648   -2.0897 O.2       1 BENZYL     -0.3690 
     13 O13        -3.0986   -6.4378   -2.9117 O.3       1 BENZYL     -0.2919 
     14 H1         -1.8416   -6.1783   -0.3757 H         1 BENZYL      0.0804 
     15 H2          0.1511   -5.1112    0.7337 H         1 BENZYL      0.2219 
     16 H3          1.9526   -8.2095   -3.2754 H         1 BENZYL      0.0540 
     17 H4          4.3035   -7.5487   -2.7084 H         1 BENZYL      0.0510 
     18 H5          4.7574   -5.9889   -0.8437 H         1 BENZYL      0.0530 
     19 H6          2.8795   -5.0436    0.5168 H         1 BENZYL      0.0541 
     20 H7         -0.9799   -8.9896   -2.3980 H         1 BENZYL      0.0599 
     21 H8         -0.8271   -7.7356   -3.6558 H         1 BENZYL      0.0599 
     22 H9         -2.4296   -5.8452   -3.2323 H         1 BENZYL      0.2540 
@<TRIPOS>BOND
     1    2    3 1    
     2    3    4 ar   
     3    3    8 ar   
     4    8    7 ar   
     5    7    6 ar   
     6    6    5 ar   
     7    5    4 ar   
     8    2    1 1    
     9    4    9 1    
    10    1    9 2    
    11    9   10 1    
    12   10   11 1    
    13   11   12 2    
    14   11   13 1    
    15    1   14 1    
    16    2   15 1    
    17    5   16 1    
    18    6   17 1    
    19    7   18 1    
    20    8   19 1    
    21   10   20 1    
    22   10   21 1    
    23   13   22 1    
@<TRIPOS>SUBSTRUCTURE
     1 BENZYL      2 PERM              0 ****  ****    0 ROOT 
@<TRIPOS>NORMAL
@<TRIPOS>FF_PBC
FORCE_FIELD_SETUP_FEATURE Force Field Setup information
v1.0  0 0.000000 0.000000 0.000000 0.000000 0.000000 0.000000 NONE 0 0 0 0 1 0 0 0 0 0 0 0 0
