#	Name:			PISM01105
#	Creating user name:	14062
#	Creation time:		Sat Apr 06 21:22:14 2019

#	Modifying user name:	14062
#	Modification time:	Sat Apr 06 21:25:13 2019

@<TRIPOS>MOLECULE
PISM01105
   47    49     2     2     0
SMALL
GAST_HUCK


@<TRIPOS>ATOM
      1 C1         -8.0417    6.1321   -4.9837 C.2       1 BENZYL      0.1585 
      2 C1         -6.7219    6.3013   -4.8333 C.2       1 BENZYL     -0.0368 
      3 C2         -5.7096    5.7581   -5.8183 C.ar      1 BENZYL     -0.0465 
      4 C3         -5.7983    4.4446   -6.2891 C.ar      1 BENZYL     -0.0742 
      5 C4         -4.9193    4.0012   -7.2794 C.ar      1 BENZYL     -0.0392 
      6 C5         -3.9079    4.8418   -7.7492 C.ar      1 BENZYL      0.1215 
      7 C6         -3.7555    6.1301   -7.2218 C.ar      1 BENZYL      0.1203 
      8 C7         -4.6652    6.5811   -6.2548 C.ar      1 BENZYL     -0.0353 
      9 C9         -9.0646    6.6119   -4.0396 C.2       1 BENZYL      0.3032 
     10 N10       -10.2677    6.2741   -4.3909 N.pl3     1 BENZYL      0.0859 
     11 S11       -10.3273    5.5033   -5.6010 S.2       1 BENZYL      0.3486 
     12 S12        -8.7850    5.3033   -6.3846 S.3       1 BENZYL      0.2666 
     13 O13        -8.8075    7.2601   -3.0414 O.2       1 BENZYL     -0.3679 
     14 C14       -11.7319    4.6492   -6.1272 C.2       1 BENZYL      0.3305 
     15 N15       -11.6514    6.7836   -3.4663 N.am      1 BENZYL     -0.1336 
     16 C16       -12.8321    6.9655   -4.0890 C.2       1 BENZYL      0.2258 
     17 O17       -12.8855    6.7343   -5.2858 O.2       1 BENZYL     -0.3827 
     18 C18       -14.0840    7.4382   -3.3728 C.ar      1 BENZYL      0.0403 
     19 C19       -14.2622    7.2802   -1.9934 C.ar      1 BENZYL     -0.0552 
     20 C20       -15.4164    7.7662   -1.3751 C.ar      1 BENZYL     -0.0678 
     21 C21       -16.4212    8.3711   -2.1343 C.ar      1 BENZYL     -0.0328 
     22 C22       -16.2845    8.5054   -3.5228 C.ar      1 BENZYL      0.1362 
     23 C23       -15.1016    8.0452   -4.1204 C.ar      1 BENZYL     -0.0174 
     24 N         -17.2741    9.0676   -4.2697 N.pl3     2 NO2         0.1222 
     25 O         -18.2694    9.4608   -3.7011 O.2       2 NO2        -0.1132 
     26 O         -17.1155    9.1445   -5.4688 O.2       2 NO2        -0.1132 
     27 O27        -2.6974    6.9316   -7.6800 O.3       1 BENZYL     -0.3248 
     28 C28        -2.3944    8.2146   -7.1089 C.3       1 BENZYL      0.0569 
     29 O29        -3.0512    4.3808   -8.7509 O.3       1 BENZYL     -0.3233 
     30 C30        -1.7518    3.9861   -8.2809 C.3       1 BENZYL      0.0576 
     31 H1         -6.3472    6.8591   -3.9740 H         1 BENZYL      0.0564 
     32 H2         -6.5348    3.7582   -5.8851 H         1 BENZYL      0.0504 
     33 H3         -5.0133    2.9999   -7.6866 H         1 BENZYL      0.0518 
     34 H4         -4.5838    7.5737   -5.8301 H         1 BENZYL      0.0501 
     35 H5        -11.8252    4.2955   -7.1531 H         1 BENZYL      0.3950 
     36 H6        -12.5659    4.4460   -5.4547 H         1 BENZYL      0.3950 
     37 H7        -11.5247    7.0005   -2.4974 H         1 BENZYL      0.2197 
     38 H8        -13.5241    6.7744   -1.3822 H         1 BENZYL      0.0557 
     39 H9        -15.5357    7.6707   -0.2993 H         1 BENZYL      0.0594 
     40 H10       -17.3088    8.7321   -1.6240 H         1 BENZYL      0.0553 
     41 H11       -14.9592    8.1600   -5.1896 H         1 BENZYL      0.0567 
     42 H12        -1.4997    8.6035   -7.6175 H         1 BENZYL      0.0573 
     43 H13        -2.1720    8.1257   -6.0343 H         1 BENZYL      0.0573 
     44 H14        -3.2177    8.9270   -7.2697 H         1 BENZYL      0.0573 
     45 H15        -1.1644    3.6412   -9.1445 H         1 BENZYL      0.0575 
     46 H16        -1.8375    3.1578   -7.5600 H         1 BENZYL      0.0575 
     47 H17        -1.2195    4.8267   -7.8093 H         1 BENZYL      0.0575 
@<TRIPOS>BOND
     1    2    3 1    
     2    3    4 ar   
     3    3    8 ar   
     4    8    7 ar   
     5    7    6 ar   
     6    6    5 ar   
     7    5    4 ar   
     8    2    1 2    
     9    1    9 1    
    10    9   10 1    
    11   10   11 1    
    12   11   12 1    
    13    1   12 1    
    14    9   13 2    
    15   11   14 2    
    16   10   15 1    
    17   15   16 am   
    18   16   17 2    
    19   16   18 1    
    20   18   19 ar   
    21   19   20 ar   
    22   20   21 ar   
    23   21   22 ar   
    24   22   23 ar   
    25   18   23 ar   
    26   24   25 2    
    27   24   26 2    
    28   22   24 1    
    29    7   27 1    
    30   27   28 1    
    31    6   29 1    
    32   29   30 1    
    33    2   31 1    
    34    4   32 1    
    35    5   33 1    
    36    8   34 1    
    37   14   35 1    
    38   14   36 1    
    39   15   37 1    
    40   19   38 1    
    41   20   39 1    
    42   21   40 1    
    43   23   41 1    
    44   28   42 1    
    45   28   43 1    
    46   28   44 1    
    47   30   45 1    
    48   30   46 1    
    49   30   47 1    
@<TRIPOS>SUBSTRUCTURE
     1 BENZYL      2 PERM              0 ****  ****    1 ROOT 
     2 NO2        24 PERM              0 ****  ****    1  
@<TRIPOS>NORMAL
@<TRIPOS>FF_PBC
FORCE_FIELD_SETUP_FEATURE Force Field Setup information
v1.0  0 0.000000 0.000000 0.000000 0.000000 0.000000 0.000000 NONE 0 0 0 0 1 0 0 0 0 0 0 0 0
@<TRIPOS>RENDERING_ATTRS
ANTIALIASED_LINES 
*
