#	Name:			PISM01049
#	Creating user name:	malab
#	Creation time:		Tue Jul 02 22:41:51 2019

#	Modifying user name:	malab
#	Modification time:	Tue Jul 02 22:44:22 2019

@<TRIPOS>MOLECULE
PISM01049
   46    49     1     1     0
SMALL
GAST_HUCK


@<TRIPOS>ATOM
      1 C1         -6.4686   14.9418    2.7125 C.3       1 <1>        -0.0893 
      2 C2         -5.9762   15.3572    4.1367 C.3       1 <1>        -0.0998 
      3 C3         -6.8803   16.4268    4.8048 C.3       1 <1>        -0.0414 
      4 C4         -8.3087   15.8599    5.0055 C.3       1 <1>         0.0280 
      5 C5         -8.7543   15.1314    3.7662 C.2       1 <1>         0.0168 
      6 C6         -7.9666   14.7133    2.7791 C.2       1 <1>        -0.0395 
      7 C7         -6.2082   16.0736    1.6747 C.3       1 <1>        -0.1161 
      8 C8         -5.6766   13.6736    2.2797 C.3       1 <1>        -0.1161 
      9 H1         -4.9415   15.7335    4.0830 H         1 <1>         0.0074 
     10 C10        -8.7133   13.9997    1.6829 C.3       1 <1>         0.1188 
     11 C11       -10.1498   13.9051    2.3071 C.3       1 <1>         0.0512 
     12 C12       -10.2042   14.8259    3.5597 C.3       1 <1>         0.0410 
     13 O13        -8.2028   12.6682    1.4538 O.3       1 <1>        -0.2683 
     14 C14        -8.9990   11.8441    2.1108 C.2       1 <1>         0.2378 
     15 O15        -8.7595   10.6542    2.2229 O.2       1 <1>        -0.3778 
     16 C16       -10.1964   12.4494    2.6638 C.2       1 <1>         0.0594 
     17 C17       -11.1660   11.8343    3.3478 C.2       1 <1>         0.0792 
     18 O18       -12.2264   12.5407    3.7639 O.3       1 <1>        -0.2722 
     19 C19       -13.1682   11.7609    4.5192 C.3       1 <1>         0.2383 
     20 C20       -14.2319   12.6984    5.0352 C.2       1 <1>        -0.0010 
     21 C21       -14.1994   12.7558    6.3652 C.2       1 <1>         0.0293 
     22 C22       -13.1157   11.8462    6.7190 C.2       1 <1>         0.2495 
     23 O23       -12.5221   11.2402    5.6985 O.3       1 <1>        -0.2305 
     24 O24       -12.7768   11.6469    7.8726 O.2       1 <1>        -0.3691 
     25 C25       -15.0629   13.5728    7.2870 C.3       1 <1>        -0.0323 
     26 H2         -5.9749   14.4728    4.7952 H         1 <1>         0.0074 
     27 H3         -6.9178   17.3333    4.1823 H         1 <1>         0.0303 
     28 H4         -6.4620   16.7170    5.7836 H         1 <1>         0.0303 
     29 H5         -9.0034   16.6793    5.2507 H         1 <1>         0.0681 
     30 H6         -8.3142   15.1350    5.8351 H         1 <1>         0.0681 
     31 H7         -5.1477   16.3681    1.6841 H         1 <1>         0.0034 
     32 H8         -6.8196   16.9640    1.8787 H         1 <1>         0.0034 
     33 H9         -6.4538   15.7331    0.6575 H         1 <1>         0.0034 
     34 H10        -5.8774   13.4062    1.2319 H         1 <1>         0.0034 
     35 H11        -4.5942   13.8516    2.3729 H         1 <1>         0.0034 
     36 H12        -5.9441   12.8173    2.9180 H         1 <1>         0.0034 
     37 H13        -8.6793   14.6026    0.7622 H         1 <1>         0.0798 
     38 H14       -10.9483   14.1158    1.5768 H         1 <1>         0.0491 
     39 H15       -10.6464   14.3492    4.4477 H         1 <1>         0.0701 
     40 H16       -10.7372   15.7647    3.3418 H         1 <1>         0.0701 
     41 H17       -11.0427   10.7640    3.5347 H         1 <1>         0.1070 
     42 H18       -13.6209   10.9487    3.9249 H         1 <1>         0.1210 
     43 H19       -14.9226   13.2542    4.4023 H         1 <1>         0.0706 
     44 H20       -15.2987   14.5452    6.8293 H         1 <1>         0.0347 
     45 H21       -14.5391   13.7454    8.2392 H         1 <1>         0.0347 
     46 H22       -15.9992   13.0310    7.4866 H         1 <1>         0.0347 
@<TRIPOS>BOND
     1    2    1 1    
     2    2    3 1    
     3    3    4 1    
     4    4    5 1    
     5    5    6 2    
     6    1    6 1    
     7    1    7 1    
     8    1    8 1    
     9    2    9 1    
    10    6   10 1    
    11   10   11 1    
    12   11   12 1    
    13    5   12 1    
    14   10   13 1    
    15   13   14 1    
    16   14   15 2    
    17   14   16 1    
    18   11   16 1    
    19   16   17 2    
    20   17   18 1    
    21   18   19 1    
    22   19   20 1    
    23   20   21 2    
    24   21   22 1    
    25   22   23 1    
    26   19   23 1    
    27   22   24 2    
    28   21   25 1    
    29    2   26 1    
    30    3   27 1    
    31    3   28 1    
    32    4   29 1    
    33    4   30 1    
    34    7   31 1    
    35    7   32 1    
    36    7   33 1    
    37    8   34 1    
    38    8   35 1    
    39    8   36 1    
    40   10   37 1    
    41   11   38 1    
    42   12   39 1    
    43   12   40 1    
    44   17   41 1    
    45   19   42 1    
    46   20   43 1    
    47   25   44 1    
    48   25   45 1    
    49   25   46 1    
@<TRIPOS>SUBSTRUCTURE
     1 ****        2 TEMP              0 ****  ****    0 ROOT 
@<TRIPOS>NORMAL
@<TRIPOS>FF_PBC
FORCE_FIELD_SETUP_FEATURE Force Field Setup information
v1.0  0 0.000000 0.000000 0.000000 0.000000 0.000000 0.000000 NONE 0 0 0 0 1 0 0 0 0 0 0 0 0
