#	Name:			PISM00860
#	Creating user name:	baoopengkun
#	Creation time:		Thu Dec 13 15:12:19 2018

#	Modifying user name:	baoopengkun
#	Modification time:	Thu Dec 13 22:36:37 2018

@<TRIPOS>MOLECULE
PISM00860
   26    27     1     1     0
SMALL
GAST_HUCK


@<TRIPOS>ATOM
      1 Cl1         0.2918    1.5415    1.8081 Cl        1 <1>        -0.0906 
      2 C2         -2.3564    2.2230    1.8285 C.ar      1 <1>        -0.0677 
      3 C3         -3.5753    2.5380    1.2201 C.ar      1 <1>        -0.0473 
      4 C4         -3.6962    2.5763   -0.1773 C.ar      1 <1>         0.1226 
      5 C5         -2.5604    2.2917   -0.9491 C.ar      1 <1>        -0.0083 
      6 C6         -1.3400    1.9772   -0.3457 C.ar      1 <1>         0.1008 
      7 C7         -1.2349    1.9398    1.0465 C.ar      1 <1>         0.0541 
      8 N8         -4.8834    2.8808   -0.7687 N.pl3     1 <1>         0.1189 
      9 O9         -0.2283    1.7006   -1.1387 O.3       1 <1>        -0.2733 
     10 C10         0.5582    2.8662   -1.4144 C.3       1 <1>         0.2356 
     11 O11        -0.2484    3.8494   -2.0945 O.3       1 <1>        -0.2313 
     12 C12         0.2776    3.9530   -3.3082 C.2       1 <1>         0.2494 
     13 C13         1.4562    3.1289   -3.5542 C.2       1 <1>         0.0292 
     14 C14         1.6281    2.4796   -2.4046 C.2       1 <1>        -0.0019 
     15 C15         2.2826    3.0326   -4.8074 C.3       1 <1>        -0.0323 
     16 O16        -0.1944    4.6947   -4.1525 O.2       1 <1>        -0.3691 
     17 H1         -2.2782    2.1973    2.9109 H         1 <1>         0.0563 
     18 H2         -4.4280    2.7519    1.8566 H         1 <1>         0.0429 
     19 H3         -2.6023    2.3102   -2.0328 H         1 <1>         0.0437 
     20 H4          1.0010    3.2957   -0.5004 H         1 <1>         0.1199 
     21 H5          2.4230    1.7624   -2.2042 H         1 <1>         0.0705 
     22 H6          2.3145    1.9884   -5.1526 H         1 <1>         0.0347 
     23 H7          3.3073    3.3768   -4.6029 H         1 <1>         0.0347 
     24 H8          1.8476    3.6575   -5.6017 H         1 <1>         0.0347 
     25 O25        -5.8266    3.1524   -0.0576 O.2       1 <1>        -0.1132 
     26 O26        -4.9421    2.8649   -1.9792 O.2       1 <1>        -0.1132 
@<TRIPOS>BOND
     1    7    1 1    
     2    2    3 ar   
     3    3    4 ar   
     4    4    5 ar   
     5    5    6 ar   
     6    6    7 ar   
     7    2    7 ar   
     8    4    8 1    
     9    6    9 1    
    10    9   10 1    
    11   10   11 1    
    12   11   12 1    
    13   12   13 1    
    14   13   14 2    
    15   10   14 1    
    16   13   15 1    
    17   12   16 2    
    18    2   17 1    
    19    3   18 1    
    20    5   19 1    
    21   10   20 1    
    22   14   21 1    
    23   15   22 1    
    24   15   23 1    
    25   15   24 1    
    26    8   25 2    
    27    8   26 2    
@<TRIPOS>SUBSTRUCTURE
     1 ****        2 TEMP              0 ****  ****    0 ROOT 
@<TRIPOS>NORMAL
@<TRIPOS>FF_PBC
FORCE_FIELD_SETUP_FEATURE Force Field Setup information
v1.0  0 0.000000 0.000000 0.000000 0.000000 0.000000 0.000000 NONE 0 0 0 0 1 0 0 0 0 0 0 0 0
