#	Name:			PISM00866.1
#	Creating user name:	baoopengkun
#	Creation time:		Thu Dec 13 23:15:37 2018

#	Modifying user name:	baoopengkun
#	Modification time:	Thu Dec 13 23:29:30 2018

@<TRIPOS>MOLECULE
PISM00866.1
   25    26     1     1     0
SMALL
GAST_HUCK


@<TRIPOS>ATOM
      1 C1          0.6337    1.0031    1.6087 C.1       1 <1>         0.0922 
      2 C2          2.3338   -0.5451    2.4781 C.ar      1 <1>        -0.0322 
      3 C3          3.6417   -1.0386    2.4795 C.ar      1 <1>        -0.0585 
      4 C4          4.5979   -0.4840    1.6237 C.ar      1 <1>        -0.0520 
      5 C5          4.2483    0.5669    0.7706 C.ar      1 <1>         0.0532 
      6 C6          2.9421    1.0662    0.7728 C.ar      1 <1>         0.1460 
      7 C7          1.9840    0.5030    1.6215 C.ar      1 <1>         0.1273 
      8 Br8         5.5168    1.2969   -0.3661 Br        1 <1>        -0.0553 
      9 O9          2.6052    2.1274   -0.0688 O.3       1 <1>        -0.2580 
     10 C10         1.8962    1.7732   -1.2664 C.3       1 <1>         0.2394 
     11 O11         1.7762    2.9719   -2.0572 O.3       1 <1>        -0.2307 
     12 C12         2.5145    2.7550   -3.1385 C.2       1 <1>         0.2495 
     13 C13         3.1246    1.4335   -3.2270 C.2       1 <1>         0.0292 
     14 C14         2.7293    0.8332   -2.1065 C.2       1 <1>        -0.0012 
     15 C15         3.9816    0.8750   -4.3294 C.3       1 <1>        -0.0323 
     16 O16         2.6605    3.6032   -4.0017 O.2       1 <1>        -0.3691 
     17 H1          1.5902   -0.9760    3.1419 H         1 <1>         0.0712 
     18 H2          3.9149   -1.8524    3.1449 H         1 <1>         0.0558 
     19 H3          5.6128   -0.8696    1.6217 H         1 <1>         0.0688 
     20 H4          0.8931    1.3643   -1.0617 H         1 <1>         0.1207 
     21 H5          2.9819   -0.1900   -1.8312 H         1 <1>         0.0706 
     22 H6          3.6747   -0.1551   -4.5644 H         1 <1>         0.0347 
     23 H7          5.0337    0.8741   -4.0078 H         1 <1>         0.0347 
     24 H8          3.8846    1.4914   -5.2357 H         1 <1>         0.0347 
     25 N25        -0.4524    1.4020    1.5883 N.1       1 <1>        -0.3387 
@<TRIPOS>BOND
     1    7    1 1    
     2    3    2 ar   
     3    4    3 ar   
     4    5    4 ar   
     5    6    5 ar   
     6    6    7 ar   
     7    2    7 ar   
     8    5    8 1    
     9    6    9 1    
    10    9   10 1    
    11   10   11 1    
    12   11   12 1    
    13   12   13 1    
    14   13   14 2    
    15   10   14 1    
    16   13   15 1    
    17   12   16 2    
    18    2   17 1    
    19    3   18 1    
    20    4   19 1    
    21   10   20 1    
    22   14   21 1    
    23   15   22 1    
    24   15   23 1    
    25   15   24 1    
    26    1   25 3    
@<TRIPOS>SUBSTRUCTURE
     1 ****        2 TEMP              0 ****  ****    0 ROOT 
@<TRIPOS>NORMAL
@<TRIPOS>FF_PBC
FORCE_FIELD_SETUP_FEATURE Force Field Setup information
v1.0  0 0.000000 0.000000 0.000000 0.000000 0.000000 0.000000 NONE 0 0 0 0 1 0 0 0 0 0 0 0 0
