#	Name:			PISM00011.1
#	Creating user name:	baoopengkun
#	Creation time:		Tue Dec 11 21:40:22 2018

#	Modifying user name:	baoopengkun
#	Modification time:	Tue Dec 11 21:43:25 2018

@<TRIPOS>MOLECULE
PISM00011.1
   42    44     1     1     0
SMALL
GAST_HUCK


@<TRIPOS>ATOM
      1 C1         13.6953  -11.7037   -9.4984 C.ar      1 <1>        -0.0633 
      2 C2         13.3273  -11.9317  -10.8313 C.ar      1 <1>        -0.0594 
      3 C3         13.7699  -11.0637  -11.8400 C.ar      1 <1>        -0.0740 
      4 C4         14.5818   -9.9641  -11.5398 C.ar      1 <1>        -0.0732 
      5 C5         14.9425   -9.7510  -10.2090 C.ar      1 <1>        -0.0450 
      6 C6         14.5076  -10.6069   -9.2050 C.ar      1 <1>        -0.0213 
      7 C7         12.4416  -13.1249  -11.2093 C.3       1 <1>        -0.0358 
      8 C8         15.0332  -10.1615   -7.8460 C.3       1 <1>         0.0776 
      9 C9         15.3899   -8.6734   -8.1422 C.3       1 <1>        -0.0036 
     10 C10        15.8044   -8.6322   -9.6413 C.3       1 <1>        -0.0182 
     11 C11        16.4740   -8.1066   -7.1906 C.3       1 <1>        -0.0570 
     12 N12        14.0487  -10.3445   -6.7822 N.pl3     1 <1>        -0.2740 
     13 C13        13.9784  -11.5007   -6.0865 C.ar      1 <1>         0.1808 
     14 N14        13.0911  -11.6094   -5.0796 N.ar      1 <1>        -0.2438 
     15 C15        12.9962  -12.7567   -4.3793 C.ar      1 <1>         0.1187 
     16 N16        13.7950  -13.7971   -4.6877 N.ar      1 <1>        -0.2441 
     17 C17        14.6786  -13.6896   -5.6974 C.ar      1 <1>         0.1762 
     18 N18        14.7787  -12.5403   -6.3899 N.ar      1 <1>        -0.2276 
     19 N19        15.4659  -14.7365   -6.0171 N.pl3     1 <1>        -0.3014 
     20 C20        11.9864  -12.8847   -3.2379 C.3       1 <1>         0.1642 
     21 C21        10.6601  -13.4659   -3.7797 C.3       1 <1>        -0.0168 
     22 F22        11.7445  -11.6740   -2.6609 F         1 <1>        -0.2215 
     23 H23        12.4138  -13.5504   -2.4717 H         1 <1>         0.0908 
     24 H1         13.3610  -12.3602   -8.7033 H         1 <1>         0.0478 
     25 H2         13.4804  -11.2444  -12.8704 H         1 <1>         0.0482 
     26 H3         14.9246   -9.2914  -12.3188 H         1 <1>         0.0521 
     27 H4         12.1647  -13.7279  -10.3315 H         1 <1>         0.0377 
     28 H5         12.9836  -13.7669  -11.9199 H         1 <1>         0.0377 
     29 H6         11.5217  -12.7559  -11.6870 H         1 <1>         0.0377 
     30 H7         15.9587  -10.7296   -7.6550 H         1 <1>         0.0717 
     31 H8         14.4702   -8.0696   -8.0475 H         1 <1>         0.0361 
     32 H9         16.8602   -8.9116   -9.7801 H         1 <1>         0.0403 
     33 H10        15.6093   -7.6587  -10.1184 H         1 <1>         0.0403 
     34 H11        16.1227   -8.1635   -6.1486 H         1 <1>         0.0236 
     35 H12        16.6802   -7.0541   -7.4396 H         1 <1>         0.0236 
     36 H13        17.4097   -8.6795   -7.2790 H         1 <1>         0.0236 
     37 H14        13.4264   -9.5701   -6.5117 H         1 <1>         0.1925 
     38 H15        15.3925  -15.6155   -5.4874 H         1 <1>         0.1861 
     39 H16        16.1386  -14.6560   -6.7915 H         1 <1>         0.1861 
     40 H17        10.2425  -12.7907   -4.5424 H         1 <1>         0.0289 
     41 H18         9.9324  -13.5694   -2.9601 H         1 <1>         0.0289 
     42 H19        10.8325  -14.4546   -4.2330 H         1 <1>         0.0289 
@<TRIPOS>BOND
     1    2    1 ar   
     2    2    3 ar   
     3    3    4 ar   
     4    4    5 ar   
     5    5    6 ar   
     6    1    6 ar   
     7    2    7 1    
     8    6    8 1    
     9    8    9 1    
    10    9   10 1    
    11    5   10 1    
    12    9   11 1    
    13    8   12 1    
    14   12   13 1    
    15   13   14 ar   
    16   14   15 ar   
    17   15   16 ar   
    18   16   17 ar   
    19   17   18 ar   
    20   13   18 ar   
    21   17   19 1    
    22   15   20 1    
    23   20   21 1    
    24   20   22 1    
    25   20   23 1    
    26    1   24 1    
    27    3   25 1    
    28    4   26 1    
    29    7   27 1    
    30    7   28 1    
    31    7   29 1    
    32    8   30 1    
    33    9   31 1    
    34   10   32 1    
    35   10   33 1    
    36   11   34 1    
    37   11   35 1    
    38   11   36 1    
    39   12   37 1    
    40   19   38 1    
    41   19   39 1    
    42   21   40 1    
    43   21   41 1    
    44   21   42 1    
@<TRIPOS>SUBSTRUCTURE
     1 ****        2 TEMP              0 ****  ****    0 ROOT 
@<TRIPOS>NORMAL
@<TRIPOS>FF_PBC
FORCE_FIELD_SETUP_FEATURE Force Field Setup information
v1.0  0 0.000000 0.000000 0.000000 0.000000 0.000000 0.000000 NONE 0 0 0 0 1 0 0 0 0 0 0 0 0
