#	Name:			PISM01036.1
#	Creating user name:	malab
#	Creation time:		Thu Jul 04 18:17:05 2019

#	Modifying user name:	malab
#	Modification time:	Thu Jul 04 18:20:43 2019

@<TRIPOS>MOLECULE
PISM01036.1
   38    39     1     1     0
SMALL
GAST_HUCK


@<TRIPOS>ATOM
      1 N1          3.9098    9.7596   30.3267 N.2       1 <1>        -0.1728 
      2 C2          4.9714   10.0781   30.9655 C.2       1 <1>         0.0654 
      3 N3          5.1342   11.4252   30.5075 N.2       1 <1>        -0.2825 
      4 C4          4.2199   11.7346   29.7064 C.2       1 <1>         0.1491 
      5 N5          3.3938   10.7392   29.5249 N.pl3     1 <1>        -0.1231 
      6 C6          2.3197   10.6824   28.7676 C.2       1 <1>         0.1353 
      7 C7          1.6079    9.3303   28.7971 C.3       1 <1>         0.1325 
      8 C8          2.1662    8.3067   27.7431 C.3       1 <1>         0.0044 
      9 C9          3.6933    8.0673   27.9478 C.3       1 <1>        -0.0552 
     10 C10         1.4527    6.9238   27.8702 C.3       1 <1>        -0.0552 
     11 C11         1.9434    8.8422   26.3008 C.3       1 <1>        -0.0552 
     12 O12         0.1861    9.5190   28.6701 O.3       1 <1>        -0.3715 
     13 C13         1.8963   11.7334   28.0372 C.2       1 <1>        -0.0361 
     14 C14         0.6506   11.7985   27.1798 C.ar      1 <1>        -0.0539 
     15 C15         0.7674   11.8693   25.7875 C.ar      1 <1>        -0.0688 
     16 C16        -0.3764   11.8566   24.9839 C.ar      1 <1>        -0.0364 
     17 C17        -1.6428   11.8140   25.5717 C.ar      1 <1>         0.1241 
     18 C18        -1.7650   11.8094   26.9631 C.ar      1 <1>        -0.0364 
     19 C19        -0.6199   11.8239   27.7647 C.ar      1 <1>        -0.0688 
     20 F20        -2.7315   11.7811   24.8068 F         1 <1>        -0.1896 
     21 H1          5.5750    9.4928   31.6578 H         1 <1>         0.0880 
     22 H2          4.2282   12.7374   29.2852 H         1 <1>         0.1388 
     23 H3          1.7480    8.9055   29.8059 H         1 <1>         0.0848 
     24 H4          3.8870    7.6435   28.9446 H         1 <1>         0.0238 
     25 H5          4.2662    8.9999   27.8389 H         1 <1>         0.0238 
     26 H6          4.0808    7.3580   27.2003 H         1 <1>         0.0238 
     27 H7          1.9404    6.1723   27.2301 H         1 <1>         0.0238 
     28 H8          0.4004    6.9740   27.5550 H         1 <1>         0.0238 
     29 H9          1.4929    6.5615   28.9089 H         1 <1>         0.0238 
     30 H10         2.2481    8.0933   25.5538 H         1 <1>         0.0238 
     31 H11         2.5443    9.7464   26.1330 H         1 <1>         0.0238 
     32 H12         0.8816    9.0801   26.1354 H         1 <1>         0.0238 
     33 H13        -0.3504    8.7506   28.8309 H         1 <1>         0.2141 
     34 H14         2.4246   12.6802   27.9886 H         1 <1>         0.0306 
     35 H15         1.7473   11.9364   25.3259 H         1 <1>         0.0536 
     36 H16        -0.2870   11.8804   23.9030 H         1 <1>         0.0585 
     37 H17        -2.7506   11.7956   27.4160 H         1 <1>         0.0585 
     38 H18        -0.7187   11.8580   28.8454 H         1 <1>         0.0536 
@<TRIPOS>BOND
     1    2    1 2    
     2    2    3 1    
     3    3    4 2    
     4    4    5 1    
     5    1    5 1    
     6    5    6 1    
     7    6    7 1    
     8    7    8 1    
     9    8    9 1    
    10    8   10 1    
    11    8   11 1    
    12    7   12 1    
    13    6   13 2    
    14   13   14 1    
    15   14   15 ar   
    16   15   16 ar   
    17   16   17 ar   
    18   17   18 ar   
    19   18   19 ar   
    20   14   19 ar   
    21   17   20 1    
    22    2   21 1    
    23    4   22 1    
    24    7   23 1    
    25    9   24 1    
    26    9   25 1    
    27    9   26 1    
    28   10   27 1    
    29   10   28 1    
    30   10   29 1    
    31   11   30 1    
    32   11   31 1    
    33   11   32 1    
    34   12   33 1    
    35   13   34 1    
    36   15   35 1    
    37   16   36 1    
    38   18   37 1    
    39   19   38 1    
@<TRIPOS>SUBSTRUCTURE
     1 ****        2 TEMP              0 ****  ****    0 ROOT 
@<TRIPOS>NORMAL
@<TRIPOS>FF_PBC
FORCE_FIELD_SETUP_FEATURE Force Field Setup information
v1.0  0 0.000000 0.000000 0.000000 0.000000 0.000000 0.000000 NONE 0 0 0 0 1 0 0 0 0 0 0 0 0
