#	Name:			PISM00292
#	Creating user name:	malab
#	Creation time:		Fri Apr 05 15:31:00 2019

#	Modifying user name:	malab
#	Modification time:	Fri Apr 05 15:32:06 2019

@<TRIPOS>MOLECULE
PISM00292
   65    65     1     1     0
SMALL
GAST_HUCK


@<TRIPOS>ATOM
      1 C1        -19.2608   20.6185   50.3374 C.3       1 <1>        -0.0681 
      2 Si2       -19.7475   18.8943   50.7947 Si        1 <1>         0.0000 
      3 C3        -19.1668   18.5245   52.5099 C.3       1 <1>        -0.0681 
      4 C4        -21.5885   18.7562   50.7400 C.3       1 <1>        -0.0681 
      5 C5        -19.0317   17.6744   49.5893 C.3       1 <1>        -0.0273 
      6 C6        -17.4861   17.7209   49.5420 C.3       1 <1>         0.0504 
      7 O7        -17.0509   16.7558   48.5666 O.3       1 <1>        -0.3540 
      8 C8        -15.6225   16.7131   48.3927 C.3       1 <1>         0.1485 
      9 O9        -15.2891   15.7483   47.3775 O.3       1 <1>        -0.3500 
     10 C10       -15.5308   16.1757   46.0157 C.3       1 <1>         0.0740 
     11 C11       -17.0079   16.5772   45.7459 C.3       1 <1>         0.0012 
     12 C12       -17.2823   16.7926   44.2277 C.3       1 <1>         0.0689 
     13 O13       -16.7007   15.7623   43.3971 O.3       1 <1>        -0.3471 
     14 C14       -15.3047   15.4758   43.6091 C.3       1 <1>         0.1645 
     15 C15       -15.0540   15.0163   45.0822 C.3       1 <1>         0.0496 
     16 C16       -17.2219   18.2740   43.6866 C.3       1 <1>        -0.0113 
     17 C17       -16.0223   19.1275   44.2098 C.3       1 <1>        -0.0577 
     18 C18       -18.5235   19.0439   44.0933 C.3       1 <1>        -0.0577 
     19 C19       -17.1779   18.2341   42.1288 C.3       1 <1>        -0.0577 
     20 O20       -14.5374   16.5943   43.1481 O.3       1 <1>        -0.3664 
     21 C21       -13.5553   14.6188   45.4062 C.3       1 <1>        -0.0083 
     22 C22       -12.5967   15.7881   45.7998 C.3       1 <1>        -0.0596 
     23 C23       -12.8645   13.7405   44.3130 C.3       1 <1>         0.0475 
     24 O24       -11.6065   13.2088   44.7654 O.3       1 <1>        -0.3947 
     25 C25       -15.9578   13.7586   45.3345 C.3       1 <1>        -0.0522 
     26 H1        -19.7754   21.3282   51.0016 H         1 <1>         0.0227 
     27 H2        -18.1737   20.7413   50.4474 H         1 <1>         0.0227 
     28 H3        -19.5507   20.8153   49.2948 H         1 <1>         0.0227 
     29 H4        -19.4140   17.4829   52.7621 H         1 <1>         0.0227 
     30 H5        -19.6684   19.2021   53.2161 H         1 <1>         0.0227 
     31 H6        -18.0791   18.6714   52.5750 H         1 <1>         0.0227 
     32 H7        -21.9414   18.9811   49.7229 H         1 <1>         0.0227 
     33 H8        -22.0312   19.4710   51.4491 H         1 <1>         0.0227 
     34 H9        -21.8864   17.7337   51.0146 H         1 <1>         0.0227 
     35 H10       -19.4380   17.9027   48.5914 H         1 <1>         0.0288 
     36 H11       -19.3646   16.6665   49.8821 H         1 <1>         0.0288 
     37 H12       -17.0720   17.4787   50.5337 H         1 <1>         0.0561 
     38 H13       -17.1607   18.7316   49.2481 H         1 <1>         0.0561 
     39 H14       -15.1676   16.3498   49.3269 H         1 <1>         0.0871 
     40 H15       -15.1912   17.6991   48.1542 H         1 <1>         0.0871 
     41 H16       -14.9197   17.0631   45.7984 H         1 <1>         0.0605 
     42 H17       -17.2708   17.4932   46.2905 H         1 <1>         0.0316 
     43 H18       -17.6560   15.7861   46.1541 H         1 <1>         0.0316 
     44 H19       -18.3383   16.5115   44.0819 H         1 <1>         0.0603 
     45 H20       -15.1128   14.6336   42.9242 H         1 <1>         0.0914 
     46 H21       -16.0577   19.2538   45.3009 H         1 <1>         0.0236 
     47 H22       -16.0587   20.1353   43.7684 H         1 <1>         0.0236 
     48 H23       -15.0463   18.7103   43.9464 H         1 <1>         0.0236 
     49 H24       -18.6369   19.0928   45.1858 H         1 <1>         0.0236 
     50 H25       -19.4234   18.5630   43.6795 H         1 <1>         0.0236 
     51 H26       -18.5053   20.0776   43.7143 H         1 <1>         0.0236 
     52 H27       -17.2331   19.2492   41.7062 H         1 <1>         0.0236 
     53 H28       -16.2490   17.7723   41.7669 H         1 <1>         0.0236 
     54 H29       -18.0259   17.6530   41.7343 H         1 <1>         0.0236 
     55 H30       -13.6149   16.4200   43.0144 H         1 <1>         0.2125 
     56 H31       -13.5896   13.9901   46.3127 H         1 <1>         0.0328 
     57 H32       -11.5746   15.4111   45.9557 H         1 <1>         0.0233 
     58 H33       -12.8950   16.2618   46.7469 H         1 <1>         0.0233 
     59 H34       -12.5446   16.5669   45.0297 H         1 <1>         0.0233 
     60 H35       -12.6260   14.3437   43.4272 H         1 <1>         0.0560 
     61 H36       -13.4826   12.8930   43.9828 H         1 <1>         0.0560 
     62 H37       -11.6961   12.6265   45.5132 H         1 <1>         0.2094 
     63 H38       -15.6054   12.8793   44.7818 H         1 <1>         0.0238 
     64 H39       -16.9988   13.9070   45.0172 H         1 <1>         0.0238 
     65 H40       -15.9711   13.4936   46.4026 H         1 <1>         0.0238 
@<TRIPOS>BOND
     1    2    1 1    
     2    2    3 1    
     3    2    4 1    
     4    2    5 1    
     5    5    6 1    
     6    6    7 1    
     7    7    8 1    
     8    8    9 1    
     9    9   10 1    
    10   10   11 1    
    11   11   12 1    
    12   12   13 1    
    13   13   14 1    
    14   14   15 1    
    15   10   15 1    
    16   12   16 1    
    17   16   17 1    
    18   16   18 1    
    19   16   19 1    
    20   14   20 1    
    21   15   21 1    
    22   21   22 1    
    23   21   23 1    
    24   23   24 1    
    25   15   25 1    
    26    1   26 1    
    27    1   27 1    
    28    1   28 1    
    29    3   29 1    
    30    3   30 1    
    31    3   31 1    
    32    4   32 1    
    33    4   33 1    
    34    4   34 1    
    35    5   35 1    
    36    5   36 1    
    37    6   37 1    
    38    6   38 1    
    39    8   39 1    
    40    8   40 1    
    41   10   41 1    
    42   11   42 1    
    43   11   43 1    
    44   12   44 1    
    45   14   45 1    
    46   17   46 1    
    47   17   47 1    
    48   17   48 1    
    49   18   49 1    
    50   18   50 1    
    51   18   51 1    
    52   19   52 1    
    53   19   53 1    
    54   19   54 1    
    55   20   55 1    
    56   21   56 1    
    57   22   57 1    
    58   22   58 1    
    59   22   59 1    
    60   23   60 1    
    61   23   61 1    
    62   24   62 1    
    63   25   63 1    
    64   25   64 1    
    65   25   65 1    
@<TRIPOS>SUBSTRUCTURE
     1 ****        2 TEMP              0 ****  ****    0 ROOT 
@<TRIPOS>NORMAL
@<TRIPOS>FF_PBC
FORCE_FIELD_SETUP_FEATURE Force Field Setup information
v1.0  0 0.000000 0.000000 0.000000 0.000000 0.000000 0.000000 NONE 0 0 0 0 0 0 0 0 0 0 0 0 0
