#	Name:			PISM00456
#	Creating user name:	baoopengkun
#	Creation time:		Wed Feb 27 21:50:48 2019

#	Modifying user name:	baoopengkun
#	Modification time:	Wed Feb 27 21:52:09 2019

@<TRIPOS>MOLECULE
PISM00456
   34    35     1     1     0
SMALL
GAST_HUCK


@<TRIPOS>ATOM
      1 Cl1        13.7844    6.2653  -15.5000 Cl        1 <1>        -0.0707 
      2 C2         15.1752    5.6267  -14.6487 C.ar      1 <1>         0.0405 
      3 C3         16.3549    6.3721  -14.5807 C.ar      1 <1>        -0.0459 
      4 C4         17.4657    5.8637  -13.9012 C.ar      1 <1>        -0.0341 
      5 C5         17.3926    4.6162  -13.2748 C.ar      1 <1>         0.1140 
      6 C6         16.2132    3.8690  -13.3480 C.ar      1 <1>        -0.0341 
      7 C7         15.1059    4.3719  -14.0371 C.ar      1 <1>        -0.0459 
      8 S8         18.8108    3.9527  -12.4398 S.o2      1 <1>         0.0897 
      9 O9         19.6869    5.0415  -12.0562 O.2       1 <1>        -0.1448 
     10 O10        18.3705    2.9973  -11.4419 O.2       1 <1>        -0.1448 
     11 N11        19.4881    3.1479  -13.6858 N.am      1 <1>        -0.1793 
     12 C12        20.1196    3.8827  -14.7208 C.ar      1 <1>         0.0950 
     13 C13        19.3858    4.2720  -15.8446 C.ar      1 <1>        -0.0534 
     14 C14        19.9890    5.0472  -16.8394 C.ar      1 <1>        -0.0892 
     15 C15        21.3328    5.4126  -16.7187 C.ar      1 <1>        -0.0883 
     16 C16        22.0744    4.9982  -15.6081 C.ar      1 <1>        -0.0485 
     17 C17        21.4724    4.2208  -14.6143 C.ar      1 <1>         0.1080 
     18 O18        22.2157    3.7831  -13.5163 O.3       1 <1>        -0.3290 
     19 C19        23.1287    2.7110  -13.7990 C.3       1 <1>         0.0557 
     20 C20        19.4641    1.6945  -13.7521 C.3       1 <1>         0.0425 
     21 H1         16.4063    7.3457  -15.0569 H         1 <1>         0.0624 
     22 H2         18.3863    6.4370  -13.8625 H         1 <1>         0.0637 
     23 H3         16.1587    2.8968  -12.8697 H         1 <1>         0.0637 
     24 H4         14.1919    3.7904  -14.0990 H         1 <1>         0.0624 
     25 H5         18.3476    3.9725  -15.9414 H         1 <1>         0.0444 
     26 H6         19.4130    5.3653  -17.7029 H         1 <1>         0.0479 
     27 H7         21.8007    6.0196  -17.4882 H         1 <1>         0.0443 
     28 H8         23.1175    5.2823  -15.5161 H         1 <1>         0.0488 
     29 H9         23.6256    2.4283  -12.8590 H         1 <1>         0.0571 
     30 H10        23.8972    3.0210  -14.5238 H         1 <1>         0.0571 
     31 H11        22.5897    1.8346  -14.1905 H         1 <1>         0.0571 
     32 H12        19.8629    1.3225  -14.7085 H         1 <1>         0.0513 
     33 H13        18.4300    1.3355  -13.6411 H         1 <1>         0.0513 
     34 H14        20.0737    1.2871  -12.9322 H         1 <1>         0.0513 
@<TRIPOS>BOND
     1    2    1 1    
     2    2    3 ar   
     3    3    4 ar   
     4    4    5 ar   
     5    5    6 ar   
     6    6    7 ar   
     7    2    7 ar   
     8    5    8 1    
     9    8    9 2    
    10    8   10 2    
    11    8   11 1    
    12   11   12 1    
    13   12   13 ar   
    14   13   14 ar   
    15   14   15 ar   
    16   15   16 ar   
    17   16   17 ar   
    18   12   17 ar   
    19   17   18 1    
    20   18   19 1    
    21   11   20 1    
    22    3   21 1    
    23    4   22 1    
    24    6   23 1    
    25    7   24 1    
    26   13   25 1    
    27   14   26 1    
    28   15   27 1    
    29   16   28 1    
    30   19   29 1    
    31   19   30 1    
    32   19   31 1    
    33   20   32 1    
    34   20   33 1    
    35   20   34 1    
@<TRIPOS>SUBSTRUCTURE
     1 ****        2 TEMP              0 ****  ****    0 ROOT 
@<TRIPOS>NORMAL
@<TRIPOS>FF_PBC
FORCE_FIELD_SETUP_FEATURE Force Field Setup information
v1.0  0 0.000000 0.000000 0.000000 0.000000 0.000000 0.000000 NONE 0 0 0 0 1 0 0 0 0 0 0 0 0
