#	Name:			PISM00588
#	Creating user name:	baoopengkun
#	Creation time:		Mon Dec 10 12:05:50 2018

#	Modifying user name:	baoopengkun
#	Modification time:	Mon Dec 10 12:06:02 2018

@<TRIPOS>MOLECULE
PISM00588
   39    41     1     2     0
SMALL
GAST_HUCK


@<TRIPOS>ATOM
      1 C1         -2.8624    9.0487   -4.2522 C.ar      1 <1>         0.0705 
      2 C2         -4.2412    9.2790   -4.2553 C.ar      1 <1>        -0.0181 
      3 C3         -5.0867    8.4980   -5.0478 C.ar      1 <1>        -0.0337 
      4 C4         -4.5502    7.4732   -5.8313 C.ar      1 <1>        -0.0325 
      5 C5         -3.1710    7.2479   -5.8331 C.ar      1 <1>        -0.0348 
      6 C6         -2.3153    8.0572   -5.0765 C.ar      1 <1>         0.0211 
      7 C7         -0.7966    7.8313   -5.1681 C.3       1 <1>         0.1923 
      8 C8         -0.3678    6.8156   -4.0796 C.3       1 <1>         0.1073 
      9 N9          1.0254    6.3902   -4.1163 N.pl3     1 <1>        -0.1814 
     10 N10         1.5618    5.3559   -3.4089 N.2       1 <1>        -0.1908 
     11 C11         2.8098    5.1794   -3.6374 C.2       1 <1>         0.0618 
     12 N12         3.0565    6.2218   -4.5946 N.2       1 <1>        -0.2870 
     13 C13         2.0046    6.8676   -4.8234 C.2       1 <1>         0.1270 
     14 O14        -0.0464    9.0497   -5.0947 O.3       1 <1>        -0.3815 
     15 C15        -0.2561    9.7286   -6.3345 C.3       1 <1>         0.0647 
     16 C16        -0.2657    8.5384   -7.3249 C.3       1 <1>         0.0728 
     17 O17        -0.4348    7.3846   -6.4835 O.3       1 <1>        -0.3785 
     18 H18        -6.1565    8.6851   -5.0532 H         1 <1>         0.0853 
     19 C19        -1.3731    8.6507   -8.4059 C.3       1 <1>        -0.0257 
     20 C20        -1.3725    7.4101   -9.3391 C.3       1 <1>        -0.0535 
     21 C21        -2.5044    7.4993  -10.3952 C.3       1 <1>        -0.0652 
     22 Cl22       -1.8497   10.0153   -3.1967 Cl        1 <1>        -0.0420 
     23 H2         -4.6563   10.0683   -3.6365 H         1 <1>         0.0703 
     24 H3         -5.2035    6.8529   -6.4381 H         1 <1>         0.0699 
     25 H4         -2.7650    6.4369   -6.4297 H         1 <1>         0.0849 
     26 H5         -0.9799    5.9078   -4.1867 H         1 <1>         0.0595 
     27 H6         -0.5572    7.2554   -3.0896 H         1 <1>         0.0595 
     28 H7          3.4937    4.4416   -3.2206 H         1 <1>         0.0863 
     29 H8          1.9662    7.6998   -5.5230 H         1 <1>         0.1361 
     30 H9          0.5384   10.4651   -6.5307 H         1 <1>         0.0575 
     31 H10        -1.2268   10.2485   -6.3060 H         1 <1>         0.0575 
     32 H11         0.7212    8.4354   -7.8057 H         1 <1>         0.0608 
     33 H12        -1.1969    9.5609   -9.0018 H         1 <1>         0.0290 
     34 H13        -2.3576    8.7428   -7.9229 H         1 <1>         0.0290 
     35 H14        -1.5120    6.4956   -8.7393 H         1 <1>         0.0263 
     36 H15        -0.4002    7.3368   -9.8543 H         1 <1>         0.0263 
     37 H16        -2.4832    6.6129  -11.0489 H         1 <1>         0.0230 
     38 H17        -2.3781    8.3979  -11.0190 H         1 <1>         0.0230 
     39 H18        -3.4876    7.5462   -9.9012 H         1 <1>         0.0230 
@<TRIPOS>BOND
     1    2    1 ar   
     2    2    3 ar   
     3    3    4 ar   
     4    4    5 ar   
     5    5    6 ar   
     6    1    6 ar   
     7    6    7 1    
     8    7    8 1    
     9    8    9 1    
    10    9   10 1    
    11   10   11 2    
    12   11   12 1    
    13   12   13 2    
    14    9   13 1    
    15    7   14 1    
    16   14   15 1    
    17   15   16 1    
    18   16   17 1    
    19    7   17 1    
    20    3   18 1    
    21   16   19 1    
    22   19   20 1    
    23   20   21 1    
    24    1   22 1    
    25    2   23 1    
    26    4   24 1    
    27    5   25 1    
    28    8   26 1    
    29    8   27 1    
    30   11   28 1    
    31   13   29 1    
    32   15   30 1    
    33   15   31 1    
    34   16   32 1    
    35   19   33 1    
    36   19   34 1    
    37   20   35 1    
    38   20   36 1    
    39   21   37 1    
    40   21   38 1    
    41   21   39 1    
@<TRIPOS>SUBSTRUCTURE
     1 ****        2 TEMP              0 ****  ****    0 ROOT 
@<TRIPOS>NORMAL
@<TRIPOS>FF_PBC
FORCE_FIELD_SETUP_FEATURE Force Field Setup information
v1.0  0 0.000000 0.000000 0.000000 0.000000 0.000000 0.000000 NONE 0 0 0 0 1 0 0 0 0 0 0 0 0
@<TRIPOS>RENDERING_ATTRS
ANTIALIASED_LINES 
*
