#	Name:			PISM00448
#	Creating user name:	baoopengkun
#	Creation time:		Sun Dec 16 01:29:23 2018

#	Modifying user name:	baoopengkun
#	Modification time:	Sun Dec 16 01:31:46 2018

@<TRIPOS>MOLECULE
PISM00448
   49    52     1     1     0
SMALL
GAST_HUCK


@<TRIPOS>ATOM
      1 Br1        -1.7026   19.8198   30.7759 Br        1 <1>        -0.0574 
      2 C2         -1.6032   21.6356   31.1287 C.ar      1 <1>         0.0041 
      3 C3         -2.3017   22.5441   30.3289 C.ar      1 <1>        -0.0604 
      4 C4         -2.2181   23.9151   30.5880 C.ar      1 <1>        -0.0578 
      5 C5         -1.4203   24.3861   31.6367 C.ar      1 <1>        -0.0358 
      6 C6         -0.7433   23.4716   32.4511 C.ar      1 <1>        -0.0578 
      7 C7         -0.8299   22.1003   32.1958 C.ar      1 <1>        -0.0604 
      8 C8         -1.2634   25.8887   31.9031 C.3       1 <1>         0.0268 
      9 C9         -1.7753   26.2275   33.2714 C.2       1 <1>         0.0203 
     10 C10        -0.9753   26.8362   34.1571 C.2       1 <1>         0.0641 
     11 N11         0.2740   27.1291   33.8826 N.pl3     1 <1>        -0.2573 
     12 C12         0.8531   26.8357   32.7403 C.2       1 <1>         0.0622 
     13 C13         0.2000   26.2016   31.7521 C.2       1 <1>         0.0421 
     14 C14        -3.1693   25.8757   33.6034 C.2       1 <1>         0.0902 
     15 O15        -3.9017   25.4186   32.7415 O.2       1 <1>        -0.4145 
     16 C16        -3.7071   26.0820   34.9895 C.3       1 <1>         0.0138 
     17 C17        -3.0402   27.3486   35.5720 C.3       1 <1>        -0.0238 
     18 C18        -1.4970   27.2030   35.5345 C.3       1 <1>         0.0139 
     19 C19         2.3119   27.2382   32.6029 C.3       1 <1>        -0.0002 
     20 C20         0.8704   25.7380   30.5145 C.2       1 <1>         0.1851 
     21 O21         1.9800   25.2459   30.6384 O.2       1 <1>        -0.4018 
     22 N22         0.3071   25.8297   29.3400 N.pl3     1 <1>        -0.2508 
     23 C23         0.9198   25.3310   28.2409 C.ar      1 <1>         0.0894 
     24 C24         1.1907   26.1705   27.1557 C.ar      1 <1>        -0.0432 
     25 C25         1.8646   25.6742   26.0358 C.ar      1 <1>        -0.0426 
     26 C26         2.2664   24.3366   25.9984 C.ar      1 <1>         0.1174 
     27 C27         1.9740   23.4896   27.0698 C.ar      1 <1>        -0.0049 
     28 C28         1.2792   23.9787   28.1785 C.ar      1 <1>         0.1512 
     29 F29         0.9516   23.1441   29.1643 F         1 <1>        -0.1924 
     30 F30         2.9254   23.8693   24.9417 F         1 <1>        -0.1947 
     31 H1         -2.9100   22.1844   29.5055 H         1 <1>         0.0622 
     32 H2         -2.7767   24.6093   29.9690 H         1 <1>         0.0555 
     33 H3         -0.1439   23.8254   33.2839 H         1 <1>         0.0555 
     34 H4         -0.2955   21.3964   32.8253 H         1 <1>         0.0622 
     35 H5         -1.8547   26.4990   31.2047 H         1 <1>         0.0537 
     36 H6          0.8368   27.5951   34.6133 H         1 <1>         0.2223 
     37 H7         -3.4859   25.1907   35.5967 H         1 <1>         0.0470 
     38 H8         -4.7998   26.2228   34.9523 H         1 <1>         0.0470 
     39 H9         -3.3844   27.5148   36.6068 H         1 <1>         0.0317 
     40 H10        -3.3371   28.2207   34.9645 H         1 <1>         0.0317 
     41 H11        -1.1734   26.4190   36.2375 H         1 <1>         0.0503 
     42 H12        -1.0748   28.1645   35.8706 H         1 <1>         0.0503 
     43 H13         2.9402   26.4690   33.0760 H         1 <1>         0.0464 
     44 H14         2.5055   28.2040   33.0935 H         1 <1>         0.0464 
     45 H15         2.6292   27.3636   31.5579 H         1 <1>         0.0464 
     46 H16        -0.6058   26.2886   29.2318 H         1 <1>         0.2057 
     47 H17         0.8817   27.2104   27.1860 H         1 <1>         0.0507 
     48 H18         2.0801   26.3236   25.1935 H         1 <1>         0.0540 
     49 H19         2.2832   22.4509   27.0397 H         1 <1>         0.0559 
@<TRIPOS>BOND
     1    2    1 1    
     2    2    3 ar   
     3    3    4 ar   
     4    4    5 ar   
     5    5    6 ar   
     6    6    7 ar   
     7    2    7 ar   
     8    5    8 1    
     9    8    9 1    
    10    9   10 2    
    11   10   11 1    
    12   11   12 1    
    13   12   13 2    
    14    8   13 1    
    15    9   14 1    
    16   14   15 2    
    17   14   16 1    
    18   16   17 1    
    19   17   18 1    
    20   10   18 1    
    21   12   19 1    
    22   13   20 1    
    23   20   21 2    
    24   20   22 1    
    25   22   23 1    
    26   23   24 ar   
    27   24   25 ar   
    28   25   26 ar   
    29   26   27 ar   
    30   27   28 ar   
    31   23   28 ar   
    32   28   29 1    
    33   26   30 1    
    34    3   31 1    
    35    4   32 1    
    36    6   33 1    
    37    7   34 1    
    38    8   35 1    
    39   11   36 1    
    40   16   37 1    
    41   16   38 1    
    42   17   39 1    
    43   17   40 1    
    44   18   41 1    
    45   18   42 1    
    46   19   43 1    
    47   19   44 1    
    48   19   45 1    
    49   22   46 1    
    50   24   47 1    
    51   25   48 1    
    52   27   49 1    
@<TRIPOS>SUBSTRUCTURE
     1 ****        2 TEMP              0 ****  ****    0 ROOT 
@<TRIPOS>NORMAL
@<TRIPOS>FF_PBC
FORCE_FIELD_SETUP_FEATURE Force Field Setup information
v1.0  0 0.000000 0.000000 0.000000 0.000000 0.000000 0.000000 NONE 0 0 0 0 1 0 0 0 0 0 0 0 0
