#	Name:			PISM00504
#	Creating user name:	malab
#	Creation time:		Thu Apr 04 11:27:48 2019

#	Modifying user name:	malab
#	Modification time:	Thu Apr 04 11:28:31 2019

@<TRIPOS>MOLECULE
PISM00504
   25    24     1     1     0
SMALL
GAST_HUCK


@<TRIPOS>ATOM
      1 C1         -7.4102   -5.5887   -2.3268 C.3       1 <1>        -0.0434 
      2 C2         -8.1964   -4.6109   -1.4197 C.3       1 <1>        -0.0123 
      3 C3         -7.2040   -3.7285   -0.6120 C.3       1 <1>        -0.0306 
      4 N4         -6.2275   -2.9556   -1.4417 N.4       1 <1>         0.2390 
      5 C5         -5.5070   -3.9032   -2.3494 C.3       1 <1>        -0.0306 
      6 C6         -6.4263   -4.8002   -3.2256 C.3       1 <1>        -0.0123 
      7 C7         -6.9175   -1.8738   -2.2147 C.3       1 <1>        -0.0415 
      8 C8         -5.2176   -2.2828   -0.5626 C.3       1 <1>        -0.0415 
      9 Cl9        -6.2428   -3.0020    2.2688 Cl        0 <0>        -1.0000 
     10 H1         -8.1080   -6.1699   -2.9526 H         1 <1>         0.0269 
     11 H2         -6.8476   -6.2995   -1.6980 H         1 <1>         0.0269 
     12 H3         -8.8260   -5.1939   -0.7252 H         1 <1>         0.0317 
     13 H4         -8.8765   -3.9954   -2.0273 H         1 <1>         0.0317 
     14 H5         -6.6614   -4.4191    0.0564 H         1 <1>         0.0815 
     15 H6         -7.7906   -3.0523    0.0334 H         1 <1>         0.0815 
     16 H7         -4.8866   -4.5916   -1.7487 H         1 <1>         0.0815 
     17 H8         -4.8213   -3.3580   -3.0207 H         1 <1>         0.0815 
     18 H9         -5.8103   -5.5158   -3.7976 H         1 <1>         0.0317 
     19 H10        -6.9856   -4.2008   -3.9601 H         1 <1>         0.0317 
     20 H11        -6.1985   -1.2793   -2.8004 H         1 <1>         0.0778 
     21 H12        -7.4446   -1.1790   -1.5412 H         1 <1>         0.0778 
     22 H13        -7.6646   -2.2428   -2.9269 H         1 <1>         0.0778 
     23 H14        -5.6919   -1.5527    0.1134 H         1 <1>         0.0778 
     24 H15        -4.4616   -1.7335   -1.1455 H         1 <1>         0.0778 
     25 H16        -4.6702   -3.0015    0.0686 H         1 <1>         0.0778 
@<TRIPOS>BOND
     1    2    1 1    
     2    2    3 1    
     3    3    4 1    
     4    4    5 1    
     5    5    6 1    
     6    1    6 1    
     7    4    7 1    
     8    4    8 1    
     9    1   10 1    
    10    1   11 1    
    11    2   12 1    
    12    2   13 1    
    13    3   14 1    
    14    3   15 1    
    15    5   16 1    
    16    5   17 1    
    17    6   18 1    
    18    6   19 1    
    19    7   20 1    
    20    7   21 1    
    21    7   22 1    
    22    8   23 1    
    23    8   24 1    
    24    8   25 1    
@<TRIPOS>SUBSTRUCTURE
     1 ****        2 TEMP              0 ****  ****    0 ROOT 
@<TRIPOS>NORMAL
@<TRIPOS>FF_PBC
FORCE_FIELD_SETUP_FEATURE Force Field Setup information
v1.0  0 0.000000 0.000000 0.000000 0.000000 0.000000 0.000000 NONE 0 0 0 0 1 0 0 0 0 0 0 0 0
