#	Name:			PISM00883
#	Creating user name:	baoopengkun
#	Creation time:		Fri Dec 14 09:30:18 2018

#	Modifying user name:	baoopengkun
#	Modification time:	Fri Dec 14 09:35:10 2018

@<TRIPOS>MOLECULE
PISM00883
   38    40     1     1     0
SMALL
GAST_HUCK


@<TRIPOS>ATOM
      1 C1          4.6471   -3.1384   -6.1507 C.ar      1 <1>        -0.0686 
      2 C2          4.4065   -2.2814   -7.2288 C.ar      1 <1>        -0.0620 
      3 C3          4.1641   -0.9273   -6.9819 C.ar      1 <1>        -0.0686 
      4 C4          4.1161   -0.4369   -5.6720 C.ar      1 <1>        -0.0540 
      5 C5          4.3370   -1.3091   -4.5971 C.ar      1 <1>        -0.0205 
      6 C6          4.6728   -2.6489   -4.8400 C.ar      1 <1>        -0.0540 
      7 C7          4.2053   -0.7834   -3.1838 C.2       1 <1>         0.0579 
      8 N8          4.7920    0.4519   -2.7266 N.2       1 <1>        -0.2220 
      9 N9          4.4200    0.4930   -1.4361 N.2       1 <1>        -0.0894 
     10 N10         3.6692   -0.5851   -1.1242 N.pl3     1 <1>        -0.1282 
     11 C11         3.5435   -1.3519   -2.1724 C.2       1 <1>         0.0854 
     12 C12         3.1303   -0.8320    0.2059 C.3       1 <1>         0.2430 
     13 C13         2.8776   -2.2936    0.5043 C.2       1 <1>         0.0015 
     14 C14         3.6645   -2.7150    1.4924 C.2       1 <1>         0.0295 
     15 C15         4.4128   -1.5209    1.8643 C.2       1 <1>         0.2498 
     16 O16         4.1190   -0.4257    1.1754 O.3       1 <1>        -0.2285 
     17 O17         5.2470   -1.5217    2.7529 O.2       1 <1>        -0.3691 
     18 C18         3.7492   -4.0880    2.1014 C.3       1 <1>        -0.0323 
     19 C19         3.8128    1.0485   -5.4252 C.3       1 <1>        -0.0347 
     20 C20         5.0914   -3.6033   -3.7112 C.3       1 <1>        -0.0347 
     21 C21         4.4078   -2.8038   -8.6709 C.3       1 <1>        -0.0355 
     22 H1          4.8192   -4.1940   -6.3329 H         1 <1>         0.0433 
     23 H2          4.0089   -0.2564   -7.8203 H         1 <1>         0.0433 
     24 H3          2.9990   -2.2901   -2.2490 H         1 <1>         0.1015 
     25 H4          2.2153   -0.2346    0.3439 H         1 <1>         0.1241 
     26 H5          2.1537   -2.9241   -0.0103 H         1 <1>         0.0709 
     27 H6          2.7588   -4.5675    2.1083 H         1 <1>         0.0347 
     28 H7          4.1176   -4.0185    3.1360 H         1 <1>         0.0347 
     29 H8          4.4453   -4.7051    1.5143 H         1 <1>         0.0347 
     30 H9          3.4487    1.5503   -6.3339 H         1 <1>         0.0387 
     31 H10         4.7332    1.5523   -5.0948 H         1 <1>         0.0387 
     32 H11         3.0406    1.1552   -4.6487 H         1 <1>         0.0387 
     33 H12         5.8361   -4.3249   -4.0801 H         1 <1>         0.0387 
     34 H13         4.2121   -4.1604   -3.3566 H         1 <1>         0.0387 
     35 H14         5.5493   -3.0610   -2.8708 H         1 <1>         0.0387 
     36 H15         4.9649   -2.1118   -9.3204 H         1 <1>         0.0385 
     37 H16         3.3685   -2.8715   -9.0252 H         1 <1>         0.0385 
     38 H17         4.8747   -3.7975   -8.7437 H         1 <1>         0.0385 
@<TRIPOS>BOND
     1    2    1 ar   
     2    2    3 ar   
     3    3    4 ar   
     4    4    5 ar   
     5    5    6 ar   
     6    1    6 ar   
     7    5    7 1    
     8    7    8 1    
     9    8    9 2    
    10    9   10 1    
    11   10   11 1    
    12    7   11 2    
    13   10   12 1    
    14   12   13 1    
    15   13   14 2    
    16   14   15 1    
    17   15   16 1    
    18   12   16 1    
    19   15   17 2    
    20   14   18 1    
    21    4   19 1    
    22    6   20 1    
    23    2   21 1    
    24    1   22 1    
    25    3   23 1    
    26   11   24 1    
    27   12   25 1    
    28   13   26 1    
    29   18   27 1    
    30   18   28 1    
    31   18   29 1    
    32   19   30 1    
    33   19   31 1    
    34   19   32 1    
    35   20   33 1    
    36   20   34 1    
    37   20   35 1    
    38   21   36 1    
    39   21   37 1    
    40   21   38 1    
@<TRIPOS>SUBSTRUCTURE
     1 ****        2 TEMP              0 ****  ****    0 ROOT 
@<TRIPOS>NORMAL
@<TRIPOS>FF_PBC
FORCE_FIELD_SETUP_FEATURE Force Field Setup information
v1.0  0 0.000000 0.000000 0.000000 0.000000 0.000000 0.000000 NONE 0 0 0 0 1 0 0 0 0 0 0 0 0
