#	Name:			PISM00117
#	Creating user name:	baoopengkun
#	Creation time:		Mon Apr 08 22:59:12 2019

#	Modifying user name:	baoopengkun
#	Modification time:	Mon Apr 08 23:00:00 2019

@<TRIPOS>MOLECULE
PISM00117
  136   138     1     1     0
SMALL
GAST_HUCK


@<TRIPOS>ATOM
      1 C1         -8.9169   22.9035  -13.7637 C.3       1 <1>         0.1261 
      2 O2         -8.1261   24.0958  -13.9767 O.3       1 <1>        -0.2706 
      3 O3         -9.9960   25.2919  -13.8141 O.2       1 <1>        -0.3653 
      4 C4         -6.0028   22.0934  -15.6988 C.2       1 <1>        -0.0880 
      5 C5         -6.6156   22.0358  -14.5049 C.2       1 <1>        -0.0560 
      6 C6         -8.0823   21.6841  -14.2977 C.3       1 <1>         0.1148 
      7 C7         -8.7941   25.2656  -14.0287 C.2       1 <1>         0.2775 
      8 C8         -8.0373   26.4970  -14.3946 C.2       1 <1>         0.1547 
      9 C9         -6.8701   26.3330  -15.0271 C.2       1 <1>        -0.0473 
     10 C10        -6.4745   28.0863  -16.7835 C.3       1 <1>        -0.0498 
     11 O11        -8.4603   27.7540  -14.1286 O.3       1 <1>        -0.3233 
     12 C12        -3.8246   23.2515  -15.2008 C.2       1 <1>        -0.0869 
     13 C13        -4.5715   22.4031  -15.9211 C.2       1 <1>        -0.0904 
     14 C14        -6.0206   27.4465  -15.4891 C.2       1 <1>        -0.0704 
     15 C15        -4.9376   27.8231  -14.7780 C.2       1 <1>        -0.0609 
     16 C16        -9.7161   27.9034  -13.4417 C.3       1 <1>         0.0568 
     17 C17        -2.6710   25.9969  -16.0032 C.3       1 <1>         0.0652 
     18 C18        -1.9737   24.6532  -16.4157 C.3       1 <1>        -0.0078 
     19 C19        -2.3478   23.4737  -15.4592 C.3       1 <1>        -0.0227 
     20 C20        -3.9642   28.9177  -15.2231 C.3       1 <1>         0.0129 
     21 C21        -2.9029   28.5925  -16.3547 C.3       1 <1>         0.0728 
     22 C22        -1.9392   27.3382  -16.3421 C.3       1 <1>         0.0136 
     23 H23        -4.2944   23.8076  -14.3890 H         1 <1>         0.0604 
     24 C24        -9.3852   22.8010  -12.2674 C.3       1 <1>         0.0177 
     25 C25        -8.1791   22.6644  -11.2762 C.3       1 <1>         0.0682 
     26 C26        -8.5189   22.5803   -9.7455 C.3       1 <1>         0.0367 
     27 C27        -7.2192   22.2098   -8.9518 C.3       1 <1>         0.1768 
     28 C28        -7.3125   22.0531   -7.4151 C.3       1 <1>         0.0286 
     29 C29        -8.3492   20.9962   -6.9712 C.3       1 <1>         0.0730 
     30 C30        -8.3337   19.7434   -7.9002 C.3       1 <1>         0.0158 
     31 C31        -7.2595   19.7625   -9.0442 C.3       1 <1>         0.0843 
     32 O32        -6.6177   20.9981   -9.4331 O.3       1 <1>        -0.3356 
     33 O33        -9.6241   21.6798   -6.9786 O.3       1 <1>        -0.3473 
     34 C34       -10.6379   21.1087   -6.1300 C.3       1 <1>         0.1624 
     35 O35       -11.0078   19.7913   -6.5764 O.3       1 <1>        -0.3453 
     36 C36       -11.9787   19.1505   -5.7236 C.3       1 <1>         0.0917 
     37 C37       -13.2695   20.0158   -5.6337 C.3       1 <1>         0.1398 
     38 C38       -13.0009   21.5096   -5.2966 C.3       1 <1>         0.0926 
     39 C39       -11.8731   22.0354   -6.2194 C.3       1 <1>         0.0273 
     40 O40       -14.1816   22.2982   -5.5295 O.3       1 <1>        -0.3886 
     41 C41       -12.2939   17.7548   -6.3206 C.3       1 <1>        -0.0357 
     42 O42       -14.4054   19.4158   -4.9723 O.3       1 <1>        -0.2555 
     43 C43       -14.3983   19.1818   -3.6486 C.2       1 <1>         0.3173 
     44 O44       -15.4248   18.6739   -3.2336 O.2       1 <1>        -0.3777 
     45 N45       -13.4186   19.4370   -2.7577 N.am      1 <1>        -0.2763 
     46 O46        -6.2288   23.2335   -9.1355 O.3       1 <1>        -0.3640 
     47 C47        -8.2181   18.4221   -7.0830 C.3       1 <1>        -0.0561 
     48 C48        -7.8199   19.1230  -10.2956 C.2       1 <1>        -0.0701 
     49 C49        -7.3215   18.0239  -10.8784 C.2       1 <1>        -0.0993 
     50 C50        -7.9091   17.4262  -12.1351 C.3       1 <1>        -0.0485 
     51 C51        -9.1448   23.9102   -9.2308 C.3       1 <1>        -0.0551 
     52 O52        -7.2891   23.7907  -11.4315 O.3       1 <1>        -0.3910 
     53 C53       -10.4839   21.7074  -12.1170 C.3       1 <1>        -0.0571 
     54 H54        -9.7989   22.9726  -14.4204 H         1 <1>         0.0703 
     55 O55        -8.5984   21.1730  -15.5518 O.3       1 <1>        -0.3641 
     56 C56        -9.7764   20.3467  -15.4457 C.3       1 <1>         0.0400 
     57 C57        -2.2341   24.2657  -17.9019 C.3       1 <1>        -0.0580 
     58 C58        -0.5355   27.5727  -15.6781 C.3       1 <1>        -0.0482 
     59 C59        -0.5248   28.0202  -14.1976 C.3       1 <1>        -0.0649 
     60 O60        -2.1470   29.7981  -16.5899 O.3       1 <1>        -0.3888 
     61 C61        -3.4793   29.8023  -14.0307 C.3       1 <1>        -0.0497 
     62 O62        -3.9323   26.0770  -16.6876 O.3       1 <1>        -0.3910 
     63 H1         -6.5679   21.8826  -16.6064 H         1 <1>         0.0403 
     64 H2         -6.0140   22.2375  -13.6205 H         1 <1>         0.0631 
     65 H3         -8.0651   20.8400  -13.5928 H         1 <1>         0.0800 
     66 H4         -6.4991   25.3329  -15.2464 H         1 <1>         0.0444 
     67 H5         -5.7355   27.9479  -17.5824 H         1 <1>         0.0312 
     68 H6         -6.6778   29.1581  -16.6423 H         1 <1>         0.0312 
     69 H7         -7.4134   27.6263  -17.1303 H         1 <1>         0.0312 
     70 H8         -4.1018   21.8828  -16.7562 H         1 <1>         0.0402 
     71 C71        -4.6747   27.1706  -13.4273 C.3       1 <1>        -0.0338 
     72 H10        -9.8402   28.9775  -13.2414 H         1 <1>         0.0575 
     73 H11        -9.7266   27.3752  -12.4746 H         1 <1>         0.0575 
     74 H12       -10.5638   27.5853  -14.0684 H         1 <1>         0.0575 
     75 H13        -2.8013   25.9813  -14.9175 H         1 <1>         0.0601 
     76 H14        -0.8823   24.7526  -16.3294 H         1 <1>         0.0349 
     77 H15        -1.8809   23.6514  -14.4758 H         1 <1>         0.0440 
     78 H16        -1.9037   22.5429  -15.8482 H         1 <1>         0.0440 
     79 H17        -4.6012   29.6654  -15.7259 H         1 <1>         0.0498 
     80 H18        -3.5142   28.4483  -17.2636 H         1 <1>         0.0626 
     81 H19        -1.6572   27.1922  -17.4012 H         1 <1>         0.0353 
     82 H20        -9.8783   23.7491  -12.0142 H         1 <1>         0.0354 
     83 H21        -7.6254   21.7517  -11.5370 H         1 <1>         0.0601 
     84 H22        -9.2404   21.7745   -9.5711 H         1 <1>         0.0375 
     85 H24        -7.5231   23.0199   -6.9328 H         1 <1>         0.0342 
     86 H25        -6.3116   21.7357   -7.0744 H         1 <1>         0.0342 
     87 H26        -8.0761   20.7276   -5.9353 H         1 <1>         0.0604 
     88 H27        -9.3260   19.7166   -8.3773 H         1 <1>         0.0368 
     89 H28        -6.3867   19.1820   -8.7050 H         1 <1>         0.0725 
     90 H29       -10.2713   21.0991   -5.0888 H         1 <1>         0.0910 
     91 H30       -11.5126   18.9806   -4.7437 H         1 <1>         0.0624 
     92 H31       -13.6358   20.0578   -6.6727 H         1 <1>         0.0700 
     93 H32       -12.6831   21.6584   -4.2545 H         1 <1>         0.0625 
     94 H33       -11.5987   23.0636   -5.9325 H         1 <1>         0.0340 
     95 H34       -12.2212   22.0530   -7.2645 H         1 <1>         0.0340 
     96 H35       -14.9226   22.0131   -5.0011 H         1 <1>         0.2099 
     97 H36       -11.3740   17.1525   -6.3800 H         1 <1>         0.0255 
     98 H37       -12.7065   17.8555   -7.3362 H         1 <1>         0.0255 
     99 H38       -13.0243   17.2212   -5.6917 H         1 <1>         0.0255 
    100 H39       -13.6023   19.1905   -1.8052 H         1 <1>         0.1831 
    101 H40       -12.5401   19.8426   -2.9560 H         1 <1>         0.1831 
    102 H41        -6.0327   23.3761  -10.0557 H         1 <1>         0.2128 
    103 H42        -9.0043   18.3468   -6.3184 H         1 <1>         0.0235 
    104 H43        -7.2455   18.3690   -6.5699 H         1 <1>         0.0235 
    105 H44        -8.3066   17.5529   -7.7538 H         1 <1>         0.0235 
    106 H45        -8.6884   19.5995  -10.7410 H         1 <1>         0.0475 
    107 H46        -6.4544   17.5227  -10.4468 H         1 <1>         0.0448 
    108 H47        -7.1454   17.4250  -12.9273 H         1 <1>         0.0353 
    109 H48        -8.7861   17.9820  -12.5016 H         1 <1>         0.0353 
    110 H49        -8.2143   16.3874  -11.9379 H         1 <1>         0.0353 
    111 H50        -8.4549   24.7521   -9.3901 H         1 <1>         0.0235 
    112 H51        -9.3771   23.8606   -8.1593 H         1 <1>         0.0235 
    113 H52       -10.0902   24.1297   -9.7454 H         1 <1>         0.0235 
    114 H53        -7.0302   23.9716  -12.3302 H         1 <1>         0.2098 
    115 H55       -10.9277   21.7058  -11.1114 H         1 <1>         0.0234 
    116 H56       -10.0937   20.7038  -12.3298 H         1 <1>         0.0234 
    117 H57       -11.3074   21.9088  -12.8194 H         1 <1>         0.0234 
    118 H58       -10.6459   20.8746  -15.0308 H         1 <1>         0.0526 
    119 H59        -9.5790   19.4446  -14.8458 H         1 <1>         0.0526 
    120 H60       -10.0315   20.0259  -16.4660 H         1 <1>         0.0526 
    121 H61        -1.9672   25.0926  -18.5760 H         1 <1>         0.0235 
    122 H62        -3.2878   24.0053  -18.0757 H         1 <1>         0.0235 
    123 H63        -1.6254   23.3920  -18.1829 H         1 <1>         0.0235 
    124 H64         0.0180   28.3434  -16.2424 H         1 <1>         0.0267 
    125 H65         0.0798   26.6646  -15.7413 H         1 <1>         0.0267 
    126 H66         0.4900   27.9265  -13.7792 H         1 <1>         0.0230 
    127 H67        -1.2040   27.4072  -13.5908 H         1 <1>         0.0230 
    128 H68        -0.7992   29.0809  -14.1353 H         1 <1>         0.0230 
    129 H69        -1.6180   29.7826  -17.3823 H         1 <1>         0.2101 
    130 H70        -2.8860   30.6602  -14.3829 H         1 <1>         0.0258 
    131 H71        -2.8824   29.2629  -13.2903 H         1 <1>         0.0258 
    132 H72        -4.3516   30.2050  -13.4890 H         1 <1>         0.0258 
    133 H73        -4.5157   25.3484  -16.5188 H         1 <1>         0.2098 
    134 H9         -5.0467   26.1390  -13.3541 H         1 <1>         0.0405 
    135 H74        -5.2002   27.7700  -12.6690 H         1 <1>         0.0405 
    136 H75        -3.6178   27.1310  -13.1429 H         1 <1>         0.0405 
@<TRIPOS>BOND
     1    1    2 1    
     2    7    3 2    
     3   14   10 1    
     4    4    5 2    
     5    5    6 1    
     6    6    1 1    
     7    2    7 1    
     8    7    8 1    
     9    8    9 2    
    10    8   11 1    
    11   11   16 1    
    12   12   23 1    
    13    1   24 1    
    14   12   13 2    
    15   13    4 1    
    16    9   14 1    
    17   14   15 2    
    18   24   25 1    
    19   25   26 1    
    20   26   27 1    
    21   18   17 1    
    22   19   18 1    
    23   12   19 1    
    24   15   20 1    
    25   20   21 1    
    26   21   22 1    
    27   22   17 1    
    28   27   28 1    
    29   28   29 1    
    30   29   30 1    
    31   30   31 1    
    32   31   32 1    
    33   27   32 1    
    34   29   33 1    
    35   33   34 1    
    36   34   35 1    
    37   35   36 1    
    38   36   37 1    
    39   37   38 1    
    40   38   39 1    
    41   34   39 1    
    42   38   40 1    
    43   36   41 1    
    44   37   42 1    
    45   42   43 1    
    46   43   44 2    
    47   43   45 am   
    48   27   46 1    
    49   30   47 1    
    50   31   48 1    
    51   48   49 2    
    52   49   50 1    
    53   26   51 1    
    54   25   52 1    
    55   24   53 1    
    56    1   54 1    
    57    6   55 1    
    58   55   56 1    
    59   18   57 1    
    60   22   58 1    
    61   58   59 1    
    62   21   60 1    
    63   20   61 1    
    64   17   62 1    
    65    4   63 1    
    66    5   64 1    
    67    6   65 1    
    68    9   66 1    
    69   10   67 1    
    70   10   68 1    
    71   10   69 1    
    72   13   70 1    
    73   15   71 1    
    74   16   72 1    
    75   16   73 1    
    76   16   74 1    
    77   17   75 1    
    78   18   76 1    
    79   19   77 1    
    80   19   78 1    
    81   20   79 1    
    82   21   80 1    
    83   22   81 1    
    84   24   82 1    
    85   25   83 1    
    86   26   84 1    
    87   28   85 1    
    88   28   86 1    
    89   29   87 1    
    90   30   88 1    
    91   31   89 1    
    92   34   90 1    
    93   36   91 1    
    94   37   92 1    
    95   38   93 1    
    96   39   94 1    
    97   39   95 1    
    98   40   96 1    
    99   41   97 1    
   100   41   98 1    
   101   41   99 1    
   102   45  100 1    
   103   45  101 1    
   104   46  102 1    
   105   47  103 1    
   106   47  104 1    
   107   47  105 1    
   108   48  106 1    
   109   49  107 1    
   110   50  108 1    
   111   50  109 1    
   112   50  110 1    
   113   51  111 1    
   114   51  112 1    
   115   51  113 1    
   116   52  114 1    
   117   53  115 1    
   118   53  116 1    
   119   53  117 1    
   120   56  118 1    
   121   56  119 1    
   122   56  120 1    
   123   57  121 1    
   124   57  122 1    
   125   57  123 1    
   126   58  124 1    
   127   58  125 1    
   128   59  126 1    
   129   59  127 1    
   130   59  128 1    
   131   60  129 1    
   132   61  130 1    
   133   61  131 1    
   134   61  132 1    
   135   62  133 1    
   136   71  134 1    
   137   71  135 1    
   138   71  136 1    
@<TRIPOS>SUBSTRUCTURE
     1 ****        2 TEMP              0 ****  ****    0 ROOT 
@<TRIPOS>NORMAL
@<TRIPOS>FF_PBC
FORCE_FIELD_SETUP_FEATURE Force Field Setup information
v1.0  0 0.000000 0.000000 0.000000 0.000000 0.000000 0.000000 NONE 0 0 0 0 1 0 0 0 0 0 0 0 0
