#	Name:			PISM00757.1
#	Creating user name:	baoopengkun
#	Creation time:		Sun Dec 02 11:35:31 2018

#	Modifying user name:	baoopengkun
#	Modification time:	Sun Dec 02 11:38:09 2018

@<TRIPOS>MOLECULE
PISM00757.1
   34    36     1     2     0
SMALL
GAST_HUCK


@<TRIPOS>ATOM
      1 C1          5.0595    4.0349  -11.0597 C.ar      1 <1>        -0.0509 
      2 C2          6.3830    4.4446  -10.8759 C.ar      1 <1>        -0.0632 
      3 C3          6.9532    4.4041   -9.6007 C.ar      1 <1>        -0.0642 
      4 C4          6.1951    3.9697   -8.5095 C.ar      1 <1>        -0.0544 
      5 C5          4.8653    3.5712   -8.6884 C.ar      1 <1>        -0.0236 
      6 C6          4.3060    3.5834   -9.9710 C.ar      1 <1>         0.0283 
      7 C7          2.8837    3.1072  -10.1644 C.2       1 <1>         0.1280 
      8 C8          2.2113    2.3688   -9.0781 C.2       1 <1>         0.0209 
      9 C9          3.0527    1.9765   -7.8857 C.3       1 <1>        -0.0164 
     10 C10         4.0084    3.1314   -7.4942 C.3       1 <1>        -0.0109 
     11 O11         2.2991    3.3280  -11.2130 O.2       1 <1>        -0.3941 
     12 C12         0.9086    2.0622   -9.1601 C.2       1 <1>         0.0764 
     13 O13         0.3167    1.3883   -8.1619 O.3       1 <1>        -0.2719 
     14 C14        -1.0823    1.1437   -8.3827 C.3       1 <1>         0.2384 
     15 O15        -1.2713    0.3575   -9.5772 O.3       1 <1>        -0.2305 
     16 C16        -1.7784   -0.7962   -9.1606 C.2       1 <1>         0.2495 
     17 C17        -1.9982   -0.9026   -7.7224 C.2       1 <1>         0.0293 
     18 C18        -1.5815    0.2729   -7.2564 C.2       1 <1>        -0.0010 
     19 C19        -2.5593   -2.0629   -6.9465 C.3       1 <1>        -0.0323 
     20 O20        -2.0457   -1.6991   -9.9345 O.2       1 <1>        -0.3691 
     21 H1          4.6185    4.0655  -12.0511 H         1 <1>         0.0648 
     22 H2          6.9671    4.7929  -11.7224 H         1 <1>         0.0571 
     23 H3          7.9848    4.7116   -9.4581 H         1 <1>         0.0634 
     24 H4          6.6457    3.9477   -7.5224 H         1 <1>         0.0568 
     25 H5          3.6447    1.0910   -8.1670 H         1 <1>         0.0378 
     26 H6          2.4401    1.7155   -7.0075 H         1 <1>         0.0378 
     27 H7          4.6459    2.8053   -6.6561 H         1 <1>         0.0454 
     28 H8          3.4207    4.0034   -7.1657 H         1 <1>         0.0454 
     29 H9          0.3588    2.3735  -10.0525 H         1 <1>         0.1072 
     30 H10        -1.6671    2.0779   -8.4336 H         1 <1>         0.1210 
     31 H11        -1.5916    0.5673   -6.2078 H         1 <1>         0.0706 
     32 H12        -2.7381   -2.9192   -7.6141 H         1 <1>         0.0347 
     33 H13        -3.5108   -1.7698   -6.4786 H         1 <1>         0.0347 
     34 H14        -1.8489   -2.3646   -6.1624 H         1 <1>         0.0347 
@<TRIPOS>BOND
     1    2    1 ar   
     2    2    3 ar   
     3    3    4 ar   
     4    4    5 ar   
     5    5    6 ar   
     6    1    6 ar   
     7    6    7 1    
     8    7    8 1    
     9    8    9 1    
    10    9   10 1    
    11    5   10 1    
    12    7   11 2    
    13    8   12 2    
    14   12   13 1    
    15   13   14 1    
    16   14   15 1    
    17   15   16 1    
    18   16   17 1    
    19   17   18 2    
    20   14   18 1    
    21   17   19 1    
    22   16   20 2    
    23    1   21 1    
    24    2   22 1    
    25    3   23 1    
    26    4   24 1    
    27    9   25 1    
    28    9   26 1    
    29   10   27 1    
    30   10   28 1    
    31   12   29 1    
    32   14   30 1    
    33   18   31 1    
    34   19   32 1    
    35   19   33 1    
    36   19   34 1    
@<TRIPOS>SUBSTRUCTURE
     1 ****        2 TEMP              0 ****  ****    0 ROOT 
@<TRIPOS>NORMAL
@<TRIPOS>FF_PBC
FORCE_FIELD_SETUP_FEATURE Force Field Setup information
v1.0  0 0.000000 0.000000 0.000000 0.000000 0.000000 0.000000 NONE 0 0 0 0 1 0 0 0 0 0 0 0 0
@<TRIPOS>RENDERING_ATTRS
ANTIALIASED_LINES 
*
