#	Name:			PISM00683
#	Creating user name:	baoopengkun
#	Creation time:		Sat Dec 08 16:55:48 2018

#	Modifying user name:	baoopengkun
#	Modification time:	Sat Dec 08 16:56:11 2018

@<TRIPOS>MOLECULE
PISM00683
   36    38     3     2     0
SMALL
GAST_HUCK


@<TRIPOS>ATOM
      1 C1         25.7852   30.4163   -4.2735 C.3       1 PHENYL      0.0663 
      2 C          27.0807   30.9290   -4.9316 C.ar      1 PHENYL     -0.0572 
      3 C          28.3372   30.7199   -4.3485 C.ar      1 PHENYL     -0.0541 
      4 C          29.4940   31.2208   -4.9529 C.ar      1 PHENYL     -0.0434 
      5 C          29.4071   31.9258   -6.1561 C.ar      1 PHENYL     -0.0437 
      6 C          28.1605   32.1195   -6.7565 C.ar      1 PHENYL     -0.0434 
      7 C          27.0067   31.6148   -6.1498 C.ar      1 PHENYL     -0.0541 
      8 O8         24.6893   31.2951   -4.5859 O.3       1 PHENYL     -0.4525 
      9 C          25.8324   30.3637   -2.7319 C.ar      2 PHENYL     -0.0572 
     10 C          25.2280   29.3201   -2.0194 C.ar      2 PHENYL     -0.0541 
     11 C          25.3530   29.2418   -0.6292 C.ar      2 PHENYL     -0.0434 
     12 C          26.0467   30.2337    0.0687 C.ar      2 PHENYL     -0.0437 
     13 C          26.5982   31.3123   -0.6273 C.ar      2 PHENYL     -0.0434 
     14 C          26.4762   31.3822   -2.0180 C.ar      2 PHENYL     -0.0541 
     15 C          25.5540   29.0366   -4.9165 C.ar      3 PHENYL     -0.0572 
     16 C          24.5322   28.8352   -5.8528 C.ar      3 PHENYL     -0.0541 
     17 C          24.3334   27.5778   -6.4304 C.ar      3 PHENYL     -0.0434 
     18 C          25.1615   26.5077   -6.0820 C.ar      3 PHENYL     -0.0437 
     19 C          26.1857   26.6998   -5.1514 C.ar      3 PHENYL     -0.0434 
     20 C          26.3765   27.9571   -4.5713 C.ar      3 PHENYL     -0.0541 
     21 H1         28.4301   30.1656   -3.4211 H         1 PHENYL      0.0761 
     22 H2         30.4618   31.0618   -4.4870 H         1 PHENYL      0.0669 
     23 H3         30.3044   32.3202   -6.6231 H         1 PHENYL      0.0772 
     24 H4         28.0879   32.6612   -7.6947 H         1 PHENYL      0.0669 
     25 H5         26.0464   31.7564   -6.6352 H         1 PHENYL      0.0761 
     26 H6         24.8182   32.1754   -4.2489 H         1 PHENYL      0.1843 
     27 H7         24.6492   28.5626   -2.5370 H         2 PHENYL      0.0761 
     28 H8         24.9087   28.4102   -0.0906 H         2 PHENYL      0.0669 
     29 H9         26.1543   30.1681    1.1472 H         2 PHENYL      0.0772 
     30 H10        27.1208   32.0965   -0.0879 H         2 PHENYL      0.0669 
     31 H11        26.8854   32.2396   -2.5428 H         2 PHENYL      0.0761 
     32 H12        23.8830   29.6545   -6.1425 H         3 PHENYL      0.0761 
     33 H13        23.5346   27.4325   -7.1514 H         3 PHENYL      0.0669 
     34 H14        25.0098   25.5316   -6.5325 H         3 PHENYL      0.0772 
     35 H15        26.8331   25.8719   -4.8784 H         3 PHENYL      0.0669 
     36 H16        27.1705   28.0882   -3.8452 H         3 PHENYL      0.0761 
@<TRIPOS>BOND
     1    2    3 ar   
     2    2    7 ar   
     3    7    6 ar   
     4    6    5 ar   
     5    5    4 ar   
     6    4    3 ar   
     7    2    1 1    
     8    1    8 1    
     9    9   10 ar   
    10    9   14 ar   
    11   14   13 ar   
    12   13   12 ar   
    13   12   11 ar   
    14   11   10 ar   
    15    1    9 1    
    16   15   16 ar   
    17   15   20 ar   
    18   20   19 ar   
    19   19   18 ar   
    20   18   17 ar   
    21   17   16 ar   
    22    1   15 1    
    23    3   21 1    
    24    4   22 1    
    25    5   23 1    
    26    6   24 1    
    27    7   25 1    
    28    8   26 1    
    29   10   27 1    
    30   11   28 1    
    31   12   29 1    
    32   13   30 1    
    33   14   31 1    
    34   16   32 1    
    35   17   33 1    
    36   18   34 1    
    37   19   35 1    
    38   20   36 1    
@<TRIPOS>SUBSTRUCTURE
     1 PHENYL      2 PERM              0 ****  ****    2 ROOT 
     2 PHENYL      9 PERM              0 ****  ****    1  
     3 PHENYL     15 PERM              0 ****  ****    1  
@<TRIPOS>NORMAL
@<TRIPOS>FF_PBC
FORCE_FIELD_SETUP_FEATURE Force Field Setup information
v1.0  0 0.000000 0.000000 0.000000 0.000000 0.000000 0.000000 NONE 0 0 0 0 1 0 0 0 0 0 0 0 0
@<TRIPOS>RENDERING_ATTRS
ANTIALIASED_LINES 
*
