#	Name:			PISM00433
#	Creating user name:	baoopengkun
#	Creation time:		Sun Mar 31 17:26:28 2019

#	Modifying user name:	baoopengkun
#	Modification time:	Sun Mar 31 17:28:28 2019

@<TRIPOS>MOLECULE
PISM00433
   46    47     1     1     0
SMALL
GAST_HUCK


@<TRIPOS>ATOM
      1 C1         -2.8117    1.6839    0.5463 C.3       1 <1>        -0.0128 
      2 C2         -4.0022    0.7448    0.8934 C.3       1 <1>         0.0208 
      3 C3         -4.0199    0.4689    2.3688 C.2       1 <1>         0.1422 
      4 C4         -2.7188    0.3316    3.1265 C.ar      1 <1>         0.0373 
      5 C5         -1.5001    0.5590    2.4754 C.ar      1 <1>        -0.0481 
      6 C6         -1.4637    1.0271    1.0080 C.3       1 <1>         0.0419 
      7 O7         -5.0883    0.3523    2.9484 O.2       1 <1>        -0.3710 
      8 C8         -2.7360   -0.0220    4.4801 C.ar      1 <1>        -0.0267 
      9 C9         -1.5390   -0.1811    5.1832 C.ar      1 <1>        -0.0393 
     10 C10        -0.3203   -0.0008    4.5253 C.ar      1 <1>        -0.0404 
     11 C11        -0.3035    0.3518    3.1733 C.ar      1 <1>        -0.0510 
     12 O12        -1.1192   -0.1275    0.2216 O.3       1 <1>        -0.4578 
     13 C13        -0.3440    2.0331    0.8522 C.2       1 <1>        -0.0768 
     14 C14         0.5588    1.9967   -0.1380 C.2       1 <1>        -0.0134 
     15 C15         1.6629    3.0150   -0.3092 C.3       1 <1>         0.0588 
     16 C16         1.3516    4.3219    0.3950 C.2       1 <1>        -0.0139 
     17 C17         0.4833    5.2875   -0.3850 C.3       1 <1>        -0.0144 
     18 C18         1.7930    4.6209    1.6281 C.2       1 <1>         0.0074 
     19 C19         2.5837    3.7350    2.5151 C.2       1 <1>         0.2179 
     20 O20         2.5593    2.5254    2.3673 O.2       1 <1>        -0.3843 
     21 O21         3.3308    4.2259    3.5078 O.3       1 <1>        -0.3018 
     22 C22        -2.7771    1.8899   -1.0007 C.3       1 <1>         0.0401 
     23 O23        -4.0241    2.3705   -1.5349 O.3       1 <1>        -0.3957 
     24 C24        -3.0343    3.0549    1.2649 C.3       1 <1>        -0.0672 
     25 H1         -3.9414   -0.2147    0.3621 H         1 <1>         0.0479 
     26 H2         -4.9556    1.2144    0.6053 H         1 <1>         0.0479 
     27 H3         -3.6813   -0.1754    4.9906 H         1 <1>         0.0722 
     28 H4         -1.5556   -0.4460    6.2359 H         1 <1>         0.0772 
     29 H5          0.6142   -0.1332    5.0626 H         1 <1>         0.0700 
     30 H6          0.6511    0.4630    2.6680 H         1 <1>         0.0767 
     31 H7         -1.6976   -0.8710    0.3485 H         1 <1>         0.1836 
     32 H8         -0.2923    2.8160    1.6069 H         1 <1>         0.0423 
     33 H9          0.5103    1.1906   -0.8721 H         1 <1>         0.1399 
     34 H10         1.7775    3.2237   -1.3849 H         1 <1>         0.0885 
     35 H11         2.6165    2.5762    0.0173 H         1 <1>         0.0885 
     36 H12         1.0396    5.6703   -1.2534 H         1 <1>         0.0472 
     37 H13         0.1487    6.1475    0.2143 H         1 <1>         0.0472 
     38 H14        -0.4127    4.7600   -0.7452 H         1 <1>         0.0472 
     39 H15         1.5462    5.5991    2.0399 H         1 <1>         0.0348 
     40 H16         3.3274    5.1729    3.5699 H         1 <1>         0.2506 
     41 H17        -2.5938    0.9240   -1.4965 H         1 <1>         0.0550 
     42 H18        -1.9614    2.5710   -1.2932 H         1 <1>         0.0550 
     43 H19        -4.2504    3.2497   -1.2497 H         1 <1>         0.2094 
     44 H20        -2.8532    2.9700    2.3468 H         1 <1>         0.0224 
     45 H21        -4.0645    3.4170    1.1357 H         1 <1>         0.0224 
     46 H22        -2.3631    3.8298    0.8660 H         1 <1>         0.0224 
@<TRIPOS>BOND
     1    2    1 1    
     2    2    3 1    
     3    3    4 1    
     4    4    5 ar   
     5    5    6 1    
     6    1    6 1    
     7    3    7 2    
     8    4    8 ar   
     9    8    9 ar   
    10    9   10 ar   
    11   10   11 ar   
    12    5   11 ar   
    13    6   12 1    
    14    6   13 1    
    15   13   14 2    
    16   14   15 1    
    17   15   16 1    
    18   16   17 1    
    19   16   18 2    
    20   18   19 1    
    21   19   20 2    
    22   19   21 1    
    23    1   22 1    
    24   22   23 1    
    25    1   24 1    
    26    2   25 1    
    27    2   26 1    
    28    8   27 1    
    29    9   28 1    
    30   10   29 1    
    31   11   30 1    
    32   12   31 1    
    33   13   32 1    
    34   14   33 1    
    35   15   34 1    
    36   15   35 1    
    37   17   36 1    
    38   17   37 1    
    39   17   38 1    
    40   18   39 1    
    41   21   40 1    
    42   22   41 1    
    43   22   42 1    
    44   23   43 1    
    45   24   44 1    
    46   24   45 1    
    47   24   46 1    
@<TRIPOS>SUBSTRUCTURE
     1 ****        2 TEMP              0 ****  ****    0 ROOT 
@<TRIPOS>NORMAL
@<TRIPOS>FF_PBC
FORCE_FIELD_SETUP_FEATURE Force Field Setup information
v1.0  0 0.000000 0.000000 0.000000 0.000000 0.000000 0.000000 NONE 0 0 0 0 1 0 0 0 0 0 0 0 0
