#	Name:			PISM00869
#	Creating user name:	baoopengkun
#	Creation time:		Thu Dec 13 23:15:37 2018

#	Modifying user name:	baoopengkun
#	Modification time:	Thu Dec 13 23:35:03 2018

@<TRIPOS>MOLECULE
PISM00869
   24    25     1     1     0
SMALL
GAST_HUCK


@<TRIPOS>ATOM
      1 H2          0.6100    1.2654    1.6223 H         1 <1>         0.0538 
      2 C2         -1.0902    2.5863    1.7647 C.ar      1 <1>        -0.0651 
      3 C3         -2.0803    3.2767    1.0593 C.ar      1 <1>        -0.0006 
      4 C4         -2.1363    3.1839   -0.3344 C.ar      1 <1>        -0.0273 
      5 C5         -1.2014    2.4065   -1.0226 C.ar      1 <1>         0.1626 
      6 C6         -0.2018    1.7279   -0.3183 C.ar      1 <1>         0.1346 
      7 C7         -0.1543    1.8085    1.0763 C.ar      1 <1>        -0.0313 
      8 F8         -1.2671    2.3154   -2.3495 F         1 <1>        -0.1894 
      9 O9          0.7462    0.9719   -1.0067 O.3       1 <1>        -0.2686 
     10 C10         1.9799    1.6754   -1.1977 C.3       1 <1>         0.2356 
     11 O11         1.7361    2.9177   -1.8883 O.3       1 <1>        -0.2314 
     12 C12         2.3491    2.7926   -3.0585 C.2       1 <1>         0.2494 
     13 C13         3.0601    1.5353   -3.2636 C.2       1 <1>         0.0292 
     14 C14         2.8408    0.8648   -2.1342 C.2       1 <1>        -0.0020 
     15 C15         3.8479    1.0965   -4.4676 C.3       1 <1>        -0.0323 
     16 O16         2.3236    3.6767   -3.8973 O.2       1 <1>        -0.3691 
     17 H1         -1.0484    2.6540    2.8473 H         1 <1>         0.0582 
     18 Br18       -3.3171    4.3126    1.9700 Br        1 <1>        -0.0610 
     19 H3         -2.9040    3.7136   -0.8878 H         1 <1>         0.0600 
     20 H4          2.5020    1.8640   -0.2450 H         1 <1>         0.1198 
     21 H5          3.2207   -0.1323   -1.9153 H         1 <1>         0.0705 
     22 H6          3.5508    0.0785   -4.7607 H         1 <1>         0.0347 
     23 H7          4.9216    1.1048   -4.2280 H         1 <1>         0.0347 
     24 H8          3.6643    1.7778   -5.3119 H         1 <1>         0.0347 
@<TRIPOS>BOND
     1    7    1 1    
     2    3    2 ar   
     3    4    3 ar   
     4    5    4 ar   
     5    6    5 ar   
     6    6    7 ar   
     7    2    7 ar   
     8    5    8 1    
     9    6    9 1    
    10    9   10 1    
    11   10   11 1    
    12   11   12 1    
    13   12   13 1    
    14   13   14 2    
    15   10   14 1    
    16   13   15 1    
    17   12   16 2    
    18    2   17 1    
    19    3   18 1    
    20    4   19 1    
    21   10   20 1    
    22   14   21 1    
    23   15   22 1    
    24   15   23 1    
    25   15   24 1    
@<TRIPOS>SUBSTRUCTURE
     1 ****        2 TEMP              0 ****  ****    0 ROOT 
@<TRIPOS>NORMAL
@<TRIPOS>FF_PBC
FORCE_FIELD_SETUP_FEATURE Force Field Setup information
v1.0  0 0.000000 0.000000 0.000000 0.000000 0.000000 0.000000 NONE 0 0 0 0 1 0 0 0 0 0 0 0 0
