#	Name:			PISM01044
#	Creating user name:	malab
#	Creation time:		Tue Jul 02 22:35:41 2019

#	Modifying user name:	malab
#	Modification time:	Tue Jul 02 22:36:44 2019

@<TRIPOS>MOLECULE
PISM01044
   28    30     1     1     0
SMALL
GAST_HUCK


@<TRIPOS>ATOM
      1 N1         -9.0289    8.3510   -0.4343 N.pl3     1 <1>        -0.3426 
      2 C2         -8.2340    7.2628   -0.5877 C.ar      1 <1>         0.0219 
      3 C3         -8.6658    6.0026   -0.1278 C.ar      1 <1>        -0.0526 
      4 C4         -7.8827    4.8458   -0.2633 C.ar      1 <1>        -0.0363 
      5 C5         -6.6436    4.9988   -0.8808 C.ar      1 <1>         0.1305 
      6 C6         -6.2347    6.2313   -1.3235 C.ar      1 <1>         0.0349 
      7 C7         -6.9809    7.3999   -1.2065 C.ar      1 <1>        -0.0431 
      8 O8         -5.7024    3.9932   -1.1233 O.3       1 <1>        -0.2325 
      9 C9         -4.7240    4.7302   -1.7354 C.2       1 <1>         0.1912 
     10 N10        -5.0379    5.9629   -1.8360 N.2       1 <1>        -0.2971 
     11 C11        -3.4693    4.1029   -2.2038 C.2       1 <1>         0.0290 
     12 C12        -3.3529    2.5983   -2.1096 C.3       1 <1>        -0.0022 
     13 C13        -2.5178    2.0043   -3.2724 C.3       1 <1>        -0.0107 
     14 C14        -1.2434    2.7862   -3.4444 C.2       1 <1>        -0.0715 
     15 C15        -1.2225    4.0952   -3.1726 C.2       1 <1>        -0.0653 
     16 C16        -2.4300    4.7950   -2.6964 C.2       1 <1>         0.0105 
     17 Br17       -2.4500    6.6862   -2.8043 Br        1 <1>        -0.0551 
     18 H1         -9.9524    8.2697    0.0165 H         1 <1>         0.1691 
     19 H2         -8.7198    9.2765   -0.7675 H         1 <1>         0.1691 
     20 H3         -9.6359    5.9106    0.3496 H         1 <1>         0.0476 
     21 H4         -8.2173    3.8772    0.0919 H         1 <1>         0.0538 
     22 H5         -6.6030    8.3467   -1.5754 H         1 <1>         0.0428 
     23 H6         -4.3432    2.1148   -2.1018 H         1 <1>         0.0457 
     24 H7         -2.8547    2.3740   -1.1526 H         1 <1>         0.0457 
     25 H8         -3.0834    2.0632   -4.2162 H         1 <1>         0.0494 
     26 H9         -2.2940    0.9451   -3.0637 H         1 <1>         0.0494 
     27 H10        -0.3434    2.2856   -3.8062 H         1 <1>         0.0731 
     28 H11        -0.3049    4.6677   -3.3133 H         1 <1>         0.0451 
@<TRIPOS>BOND
     1    2    1 1    
     2    2    3 ar   
     3    3    4 ar   
     4    4    5 ar   
     5    5    6 ar   
     6    6    7 ar   
     7    2    7 ar   
     8    5    8 1    
     9    8    9 1    
    10    9   10 2    
    11    6   10 1    
    12    9   11 1    
    13   11   12 1    
    14   12   13 1    
    15   13   14 1    
    16   14   15 2    
    17   15   16 1    
    18   11   16 2    
    19   16   17 1    
    20    1   18 1    
    21    1   19 1    
    22    3   20 1    
    23    4   21 1    
    24    7   22 1    
    25   12   23 1    
    26   12   24 1    
    27   13   25 1    
    28   13   26 1    
    29   14   27 1    
    30   15   28 1    
@<TRIPOS>SUBSTRUCTURE
     1 ****        2 TEMP              0 ****  ****    0 ROOT 
@<TRIPOS>NORMAL
@<TRIPOS>FF_PBC
FORCE_FIELD_SETUP_FEATURE Force Field Setup information
v1.0  0 0.000000 0.000000 0.000000 0.000000 0.000000 0.000000 NONE 0 0 0 0 1 0 0 0 0 0 0 0 0
