#	Name:			PISM00749
#	Creating user name:	malab
#	Creation time:		Fri Apr 05 22:21:26 2019

#	Modifying user name:	malab
#	Modification time:	Fri Apr 05 22:22:05 2019

@<TRIPOS>MOLECULE
PISM00749
   64    68     1     1     0
SMALL
GAST_HUCK


@<TRIPOS>ATOM
      1 C1         -1.2578   -6.0627    1.8416 C.2       1 <1>         0.0355 
      2 C2         -2.2700   -6.5515    2.5856 C.2       1 <1>        -0.0236 
      3 N3         -2.3787   -7.8889    2.0670 N.2       1 <1>        -0.3303 
      4 C4         -1.5300   -8.0697    1.1613 C.2       1 <1>         0.0968 
      5 N5         -0.8448   -6.9830    0.9944 N.pl3     1 <1>        -0.2556 
      6 C6          0.2378   -6.8148    0.0343 C.3       1 <1>         0.0891 
      7 C7         -0.2004   -6.3766   -1.3933 C.3       1 <1>         0.1895 
      8 O8         -1.1758   -5.3202   -1.4248 O.3       1 <1>        -0.3825 
      9 C9         -2.4717   -5.9134   -1.2885 C.3       1 <1>         0.0669 
     10 C10        -2.2817   -7.2264   -2.0808 C.3       1 <1>         0.0996 
     11 O11        -0.8623   -7.4293   -2.1161 O.3       1 <1>        -0.3769 
     12 C12         1.1026   -6.0177   -2.1282 C.ar      1 <1>         0.0198 
     13 C13         1.7864   -7.0096   -2.8434 C.ar      1 <1>        -0.0348 
     14 C14         2.9744   -6.7156   -3.5175 C.ar      1 <1>        -0.0183 
     15 C15         3.5040   -5.4245   -3.4677 C.ar      1 <1>         0.0716 
     16 C16         2.8349   -4.4335   -2.7457 C.ar      1 <1>        -0.0038 
     17 C17         1.6427   -4.7257   -2.0773 C.ar      1 <1>         0.0705 
     18 Cl18        4.9984   -5.0508   -4.3025 Cl        1 <1>        -0.0423 
     19 Cl19        0.8481   -3.4519   -1.1719 Cl        1 <1>        -0.0423 
     20 C20        -2.8454   -7.0613   -3.5173 C.3       1 <1>         0.0948 
     21 O21        -2.4006   -5.7915   -4.0374 O.3       1 <1>        -0.3239 
     22 C22        -2.9143   -5.2181   -5.2116 C.ar      1 <1>         0.0777 
     23 C23        -2.0602   -4.4794   -6.0353 C.ar      1 <1>        -0.0443 
     24 C24        -2.5558   -3.7932   -7.1475 C.ar      1 <1>        -0.0524 
     25 C25        -3.9234   -3.8096   -7.4454 C.ar      1 <1>         0.0295 
     26 C26        -4.7589   -4.6373   -6.6847 C.ar      1 <1>        -0.0524 
     27 C27        -4.2658   -5.3240   -5.5706 C.ar      1 <1>        -0.0443 
     28 N28        -4.4215   -3.0279   -8.4403 N.pl3     1 <1>        -0.3108 
     29 C29        -3.9144   -1.6698   -8.6223 C.3       1 <1>         0.0451 
     30 C30        -5.0487   -0.7382   -9.1148 C.3       1 <1>         0.0531 
     31 N31        -5.6050   -1.2662  -10.3596 N.am      1 <1>        -0.2697 
     32 C32        -5.5464   -2.7021  -10.6412 C.3       1 <1>         0.0531 
     33 C33        -5.5057   -3.4933   -9.3061 C.3       1 <1>         0.0451 
     34 C34        -6.1647   -0.3943  -11.2445 C.2       1 <1>         0.1755 
     35 O35        -6.2602    0.7963  -10.9889 O.2       1 <1>        -0.3972 
     36 C36        -6.7071   -0.8415  -12.5814 C.3       1 <1>         0.0258 
     37 H1         -0.8577   -5.0516    1.9295 H         1 <1>         0.0860 
     38 H2         -2.8447   -6.0585    3.3682 H         1 <1>         0.0444 
     39 H3         -1.3990   -8.9960    0.6037 H         1 <1>         0.1214 
     40 H4          0.9292   -6.0585    0.4388 H         1 <1>         0.0574 
     41 H5          0.8076   -7.7572   -0.0390 H         1 <1>         0.0574 
     42 H6         -3.2536   -5.2533   -1.6922 H         1 <1>         0.0575 
     43 H7         -2.7294   -6.1129   -0.2439 H         1 <1>         0.0575 
     44 H8         -2.7493   -8.0875   -1.5739 H         1 <1>         0.0635 
     45 H9          1.4081   -8.0252   -2.8765 H         1 <1>         0.0847 
     46 H10         3.4903   -7.4883   -4.0780 H         1 <1>         0.0703 
     47 H11         3.2454   -3.4300   -2.7056 H         1 <1>         0.0708 
     48 H12        -3.9386   -7.1083   -3.4064 H         1 <1>         0.0635 
     49 H13        -2.5096   -7.8859   -4.1667 H         1 <1>         0.0635 
     50 H14        -1.0029   -4.4328   -5.7993 H         1 <1>         0.0511 
     51 H15        -1.8634   -3.2470   -7.7796 H         1 <1>         0.0490 
     52 H16        -5.8063   -4.7474   -6.9427 H         1 <1>         0.0490 
     53 H17        -4.9636   -5.9170   -4.9957 H         1 <1>         0.0511 
     54 H18        -3.1062   -1.6904   -9.3709 H         1 <1>         0.0529 
     55 H19        -3.5140   -1.2644   -7.6772 H         1 <1>         0.0529 
     56 H20        -4.6227    0.2712   -9.2452 H         1 <1>         0.0541 
     57 H21        -5.8472   -0.6883   -8.3566 H         1 <1>         0.0541 
     58 H22        -4.6360   -2.9166  -11.2231 H         1 <1>         0.0541 
     59 H23        -6.4205   -3.0632  -11.2056 H         1 <1>         0.0541 
     60 H24        -5.3930   -4.5701   -9.5197 H         1 <1>         0.0529 
     61 H25        -6.4629   -3.3316   -8.7838 H         1 <1>         0.0529 
     62 H26        -6.8868    0.0286  -13.2325 H         1 <1>         0.0467 
     63 H27        -7.6646   -1.3655  -12.4425 H         1 <1>         0.0467 
     64 H28        -5.9924   -1.5018  -13.0948 H         1 <1>         0.0467 
@<TRIPOS>BOND
     1    2    1 2    
     2    2    3 1    
     3    3    4 2    
     4    4    5 1    
     5    1    5 1    
     6    5    6 1    
     7    6    7 1    
     8    7    8 1    
     9    8    9 1    
    10    9   10 1    
    11   10   11 1    
    12    7   11 1    
    13    7   12 1    
    14   12   13 ar   
    15   13   14 ar   
    16   14   15 ar   
    17   15   16 ar   
    18   16   17 ar   
    19   12   17 ar   
    20   15   18 1    
    21   17   19 1    
    22   10   20 1    
    23   20   21 1    
    24   21   22 1    
    25   22   23 ar   
    26   23   24 ar   
    27   24   25 ar   
    28   25   26 ar   
    29   26   27 ar   
    30   22   27 ar   
    31   25   28 1    
    32   28   29 1    
    33   29   30 1    
    34   30   31 1    
    35   31   32 1    
    36   32   33 1    
    37   28   33 1    
    38   31   34 am   
    39   34   35 2    
    40   34   36 1    
    41    1   37 1    
    42    2   38 1    
    43    4   39 1    
    44    6   40 1    
    45    6   41 1    
    46    9   42 1    
    47    9   43 1    
    48   10   44 1    
    49   13   45 1    
    50   14   46 1    
    51   16   47 1    
    52   20   48 1    
    53   20   49 1    
    54   23   50 1    
    55   24   51 1    
    56   26   52 1    
    57   27   53 1    
    58   29   54 1    
    59   29   55 1    
    60   30   56 1    
    61   30   57 1    
    62   32   58 1    
    63   32   59 1    
    64   33   60 1    
    65   33   61 1    
    66   36   62 1    
    67   36   63 1    
    68   36   64 1    
@<TRIPOS>SUBSTRUCTURE
     1 ****        2 TEMP              0 ****  ****    0 ROOT 
@<TRIPOS>NORMAL
@<TRIPOS>FF_PBC
FORCE_FIELD_SETUP_FEATURE Force Field Setup information
v1.0  0 0.000000 0.000000 0.000000 0.000000 0.000000 0.000000 NONE 0 0 0 0 0 0 0 0 0 0 0 0 0
