#	Name:			PISM00774.1
#	Creating user name:	baoopengkun
#	Creation time:		Tue Nov 20 09:58:54 2018

#	Modifying user name:	baoopengkun
#	Modification time:	Tue Nov 20 10:32:56 2018

@<TRIPOS>MOLECULE
PISM00774.1
   49    52     1     2     0
SMALL
GAST_HUCK


@<TRIPOS>ATOM
      1 C1          4.8694    3.4025    2.6727 C.3       1 <1>        -0.0240 
      2 C2          6.2319    4.0936    2.8968 C.3       1 <1>        -0.0149 
      3 C3          6.4535    4.7533    1.5664 C.2       1 <1>        -0.0648 
      4 C4          5.5256    4.2583    0.4849 C.3       1 <1>         0.0394 
      5 C5          4.8692    3.0232    1.1673 C.3       1 <1>         0.0130 
      6 C6          7.4013    5.6775    1.3715 C.2       1 <1>        -0.1285 
      7 C7          4.4871    5.3410    0.0740 C.3       1 <1>         0.1096 
      8 C8          3.5181    2.6237    0.6031 C.2       1 <1>        -0.0675 
      9 C9          3.3795    2.6151   -0.9035 C.3       1 <1>        -0.0171 
     10 C10         2.7937    3.9692   -1.3809 C.3       1 <1>        -0.0329 
     11 C11         3.8486    5.1032   -1.3162 C.3       1 <1>         0.0177 
     12 C12         2.4711    2.2823    1.3689 C.2       1 <1>        -0.1286 
     13 O13         5.0793    6.6407   -0.0898 O.3       1 <1>        -0.2697 
     14 C14         4.3543    7.3289   -0.9761 C.2       1 <1>         0.2399 
     15 C15         3.2679    6.5078   -1.6067 C.3       1 <1>         0.0895 
     16 O16         4.5704    8.4956   -1.2560 O.2       1 <1>        -0.3700 
     17 C17         3.0472    6.8185   -3.1083 C.3       1 <1>         0.0751 
     18 O18         4.2551    6.5099   -3.8307 O.3       1 <1>        -0.3320 
     19 C19         4.2227    6.8549   -5.2278 C.3       1 <1>         0.2149 
     20 O20         5.5125    6.4863   -5.7555 O.3       1 <1>        -0.2355 
     21 C21         5.2744    5.5195   -6.6320 C.2       1 <1>         0.2491 
     22 O22         6.1727    4.9541   -7.2317 O.2       1 <1>        -0.3691 
     23 C23         3.8691    5.1911   -6.8361 C.2       1 <1>         0.0288 
     24 C24         3.2338    6.0127   -6.0030 C.2       1 <1>        -0.0067 
     25 C25         3.2800    4.1800   -7.7814 C.3       1 <1>        -0.0323 
     26 H1          4.0664    4.1292    2.8785 H         1 <1>         0.0323 
     27 H2          4.7452    2.5345    3.3411 H         1 <1>         0.0323 
     28 H3          7.0260    3.3452    3.0500 H         1 <1>         0.0462 
     29 H4          6.2235    4.8017    3.7412 H         1 <1>         0.0462 
     30 H5          6.1356    3.9713   -0.3870 H         1 <1>         0.0554 
     31 H6          5.5456    2.1596    1.0445 H         1 <1>         0.0527 
     32 H7          7.5551    6.1312    0.3931 H         1 <1>         0.0075 
     33 H8          8.0448    5.9930    2.1920 H         1 <1>         0.0075 
     34 H9          3.7015    5.4389    0.8418 H         1 <1>         0.0686 
     35 H35         2.3445    6.6942   -1.0343 H         1 <1>         0.0581 
     36 H10         2.6844    1.8106   -1.1967 H         1 <1>         0.0460 
     37 H11         4.3403    2.3991   -1.3969 H         1 <1>         0.0460 
     38 H12         2.4624    3.8703   -2.4281 H         1 <1>         0.0297 
     39 H13         1.9131    4.2245   -0.7692 H         1 <1>         0.0297 
     40 H14         4.6577    4.8862   -2.0347 H         1 <1>         0.0362 
     41 H15         2.4995    2.2526    2.4557 H         1 <1>         0.0075 
     42 H16         1.5167    2.0099    0.9190 H         1 <1>         0.0075 
     43 H17         2.7870    7.8852   -3.2105 H         1 <1>         0.0593 
     44 H18         2.2046    6.2086   -3.4678 H         1 <1>         0.0593 
     45 H19         4.0657    7.9346   -5.3875 H         1 <1>         0.1143 
     46 H20         2.1504    6.0587   -5.9042 H         1 <1>         0.0701 
     47 H21         2.3628    4.5766   -8.2419 H         1 <1>         0.0347 
     48 H22         3.0381    3.2604   -7.2284 H         1 <1>         0.0347 
     49 H23         4.0020    3.9402   -8.5764 H         1 <1>         0.0347 
@<TRIPOS>BOND
     1    2    1 1    
     2    2    3 1    
     3    3    4 1    
     4    4    5 1    
     5    1    5 1    
     6    3    6 2    
     7    4    7 1    
     8    5    8 1    
     9    8    9 1    
    10   11   10 1    
    11    9   10 1    
    12    7   11 1    
    13    8   12 2    
    14    7   13 1    
    15   13   14 1    
    16   14   15 1    
    17   11   15 1    
    18   14   16 2    
    19   15   17 1    
    20   17   18 1    
    21   18   19 1    
    22   19   20 1    
    23   20   21 1    
    24   21   22 2    
    25   21   23 1    
    26   23   24 2    
    27   19   24 1    
    28   23   25 1    
    29    1   26 1    
    30    1   27 1    
    31    2   28 1    
    32    2   29 1    
    33    4   30 1    
    34    5   31 1    
    35    6   32 1    
    36    6   33 1    
    37   15   35 1    
    38    7   34 1    
    39    9   36 1    
    40    9   37 1    
    41   10   38 1    
    42   10   39 1    
    43   11   40 1    
    44   12   41 1    
    45   12   42 1    
    46   17   43 1    
    47   17   44 1    
    48   19   45 1    
    49   24   46 1    
    50   25   47 1    
    51   25   48 1    
    52   25   49 1    
@<TRIPOS>SUBSTRUCTURE
     1 ****        2 TEMP              0 ****  ****    0 ROOT 
@<TRIPOS>NORMAL
@<TRIPOS>FF_PBC
FORCE_FIELD_SETUP_FEATURE Force Field Setup information
v1.0  0 0.000000 0.000000 0.000000 0.000000 0.000000 0.000000 NONE 0 0 0 0 1 0 0 0 0 0 0 0 0
@<TRIPOS>RENDERING_ATTRS
LINES           
1,2,3,4,5,6,7,8,9,10,11,12,13,14,15,16,17,18,35
