#	Name:			PISM00753.1
#	Creating user name:	baoopengkun
#	Creation time:		Wed Jan 02 12:00:41 2019

#	Modifying user name:	baoopengkun
#	Modification time:	Wed Jan 02 12:03:52 2019

@<TRIPOS>MOLECULE
PISM00753.1
   38    40     1     1     0
SMALL
GAST_HUCK


@<TRIPOS>ATOM
      1 C1          1.8586   -0.7298    9.4277 C.ar      1 <1>        -0.0365 
      2 C2          3.0065   -1.4947    9.6731 C.ar      1 <1>        -0.0521 
      3 C3          3.6924   -2.1262    8.6236 C.ar      1 <1>        -0.0521 
      4 C4          3.2505   -2.0107    7.2989 C.ar      1 <1>        -0.0365 
      5 C5          2.1072   -1.2452    7.0712 C.ar      1 <1>         0.0769 
      6 C6          1.4338   -0.6262    8.1037 C.ar      1 <1>         0.0769 
      7 C7          0.2789    0.0793    7.4436 C.2       1 <1>         0.2524 
      8 O8         -0.5283    0.7075    8.1063 O.2       1 <1>        -0.3565 
      9 N9          0.3187   -0.1263    6.1453 N.pl3     1 <1>        -0.1468 
     10 C10         1.3423   -0.8892    5.8225 C.2       1 <1>         0.2524 
     11 O11         1.7370   -1.3074    4.7496 O.2       1 <1>        -0.3565 
     12 C12        -0.5833    0.3851    5.3233 C.2       1 <1>         0.1754 
     13 C13        -1.6142    1.3113    5.8492 C.2       1 <1>         0.2659 
     14 O14        -2.7906    0.9961    5.7482 O.2       1 <1>        -0.3725 
     15 O15        -1.2409    2.4826    6.3880 O.3       1 <1>        -0.2845 
     16 C16        -2.3343    3.2581    6.9148 C.3       1 <1>         0.0638 
     17 C17        -0.7389    0.2002    3.9974 C.2       1 <1>         0.0964 
     18 O18         0.0570   -0.6104    3.2948 O.3       1 <1>        -0.2797 
     19 C19        -0.2616   -0.7018    1.8975 C.3       1 <1>         0.2354 
     20 C20         0.8344   -1.5082    1.2466 C.2       1 <1>        -0.0015 
     21 C21         1.5049   -0.7633    0.3699 C.2       1 <1>         0.0292 
     22 C22         0.8316    0.5290    0.4349 C.2       1 <1>         0.2495 
     23 O23        -0.1902    0.5994    1.2788 O.3       1 <1>        -0.2310 
     24 O24         1.1742    1.4824   -0.2429 O.2       1 <1>        -0.3691 
     25 C25         2.6694   -1.1599   -0.4956 C.3       1 <1>        -0.0323 
     26 H1          1.3169   -0.2359   10.2279 H         1 <1>         0.0683 
     27 H2          3.3699   -1.5998   10.6911 H         1 <1>         0.0663 
     28 H3          4.5798   -2.7137    8.8401 H         1 <1>         0.0663 
     29 H4          3.7706   -2.4933    6.4779 H         1 <1>         0.0683 
     30 H5         -1.9180    4.1848    7.3359 H         1 <1>         0.0574 
     31 H6         -2.8527    2.7125    7.7198 H         1 <1>         0.0574 
     32 H7         -3.0557    3.5265    6.1266 H         1 <1>         0.0574 
     33 H8         -1.5477    0.7280    3.4807 H         1 <1>         0.0970 
     34 H9         -1.2460   -1.1678    1.7225 H         1 <1>         0.1204 
     35 H10         1.0472   -2.5518    1.4750 H         1 <1>         0.0706 
     36 H11         2.5653   -2.2053   -0.8229 H         1 <1>         0.0347 
     37 H12         3.6022   -1.0520    0.0773 H         1 <1>         0.0347 
     38 H13         2.7169   -0.5118   -1.3835 H         1 <1>         0.0347 
@<TRIPOS>BOND
     1    2    1 ar   
     2    2    3 ar   
     3    3    4 ar   
     4    4    5 ar   
     5    5    6 ar   
     6    1    6 ar   
     7    6    7 1    
     8    7    8 2    
     9    7    9 1    
    10    9   10 1    
    11    5   10 1    
    12   10   11 2    
    13    9   12 1    
    14   12   13 1    
    15   13   14 2    
    16   13   15 1    
    17   15   16 1    
    18   12   17 2    
    19   17   18 1    
    20   18   19 1    
    21   19   20 1    
    22   20   21 2    
    23   21   22 1    
    24   22   23 1    
    25   19   23 1    
    26   22   24 2    
    27   21   25 1    
    28    1   26 1    
    29    2   27 1    
    30    3   28 1    
    31    4   29 1    
    32   16   30 1    
    33   16   31 1    
    34   16   32 1    
    35   17   33 1    
    36   19   34 1    
    37   20   35 1    
    38   25   36 1    
    39   25   37 1    
    40   25   38 1    
@<TRIPOS>SUBSTRUCTURE
     1 ****        2 TEMP              0 ****  ****    0 ROOT 
@<TRIPOS>NORMAL
@<TRIPOS>FF_PBC
FORCE_FIELD_SETUP_FEATURE Force Field Setup information
v1.0  0 0.000000 0.000000 0.000000 0.000000 0.000000 0.000000 NONE 0 0 0 0 1 0 0 0 0 0 0 0 0
