#	Name:			PISM00463
#	Creating user name:	Administrator
#	Creation time:		Sat Feb 23 00:08:02 2019

#	Modifying user name:	Administrator
#	Modification time:	Sat Feb 23 00:22:06 2019

@<TRIPOS>MOLECULE
PISM00463
   42    43     1     2     0
SMALL
GAST_HUCK


@<TRIPOS>ATOM
      1 C1          6.0710    0.7038    3.4721 C.2       1 PHENYL     -0.0038 
      2 N2          5.2654    0.1546    2.6645 N.2       1 PHENYL     -0.2468 
      3 N3          4.2614    1.0031    2.3603 N.pl3     1 PHENYL     -0.2257 
      4 C4          4.4335    2.1346    2.9908 C.2       1 PHENYL      0.0587 
      5 C5          5.5579    2.0575    3.7205 C.2       1 PHENYL     -0.0133 
      6 C6          6.2193    3.0765    4.6184 C.3       1 PHENYL      0.0433 
      7 N7          6.2598    2.5993    5.9943 N.am      1 PHENYL     -0.2365 
      8 S8          7.8012    2.8695    7.0138 S.o2      1 PHENYL      0.0519 
      9 O9          8.9416    2.5140    6.1927 O.2       1 PHENYL     -0.1531 
     10 O10         7.6062    2.2502    8.3094 O.2       1 PHENYL     -0.1531 
     11 C11         7.7279    4.6602    7.2081 C.3       1 PHENYL      0.1189 
     12 C           8.3858    5.2214    8.4849 C.ar      1 PHENYL     -0.0060 
     13 C           9.6877    4.8731    8.8715 C.ar      1 PHENYL      0.0434 
     14 C          10.2343    5.3708   10.0585 C.ar      1 PHENYL     -0.0406 
     15 C           9.5132    6.2696   10.8464 C.ar      1 PHENYL      0.0335 
     16 C           8.2271    6.6495   10.4544 C.ar      1 PHENYL     -0.0544 
     17 C           7.6669    6.1186    9.2898 C.ar      1 PHENYL     -0.0575 
     18 C18         7.2979    0.0456    4.0373 C.3       1 PHENYL     -0.0319 
     19 C19         3.4673    3.2863    2.8556 C.3       1 PHENYL     -0.0085 
     20 C20         3.1619    0.6629    1.4694 C.3       1 PHENYL      0.0529 
     21 C21         5.1389    1.9266    6.6333 C.3       1 PHENYL      0.0190 
     22 Cl22       10.2205    6.9155   12.3141 Cl        1 PHENYL     -0.0770 
     23 H1          5.7216    4.0547    4.6075 H         1 PHENYL      0.0535 
     24 H2          7.2469    3.2201    4.2522 H         1 PHENYL      0.0535 
     25 H3          6.6506    4.8779    7.2300 H         1 PHENYL      0.0685 
     26 H4          8.1605    5.1362    6.3160 H         1 PHENYL      0.0685 
     27 Cl27       10.6818    3.8197    7.8899 Cl        1 PHENYL     -0.0771 
     28 H28        11.2268    5.0615   10.3697 H         1 PHENYL      0.0612 
     29 H7          7.6678    7.3583   11.0575 H         1 PHENYL      0.0607 
     30 H8          6.6596    6.4181    9.0157 H         1 PHENYL      0.0558 
     31 H9          7.7610    0.6734    4.8104 H         1 PHENYL      0.0367 
     32 H10         8.0244   -0.1247    3.2290 H         1 PHENYL      0.0367 
     33 H11         7.0204   -0.9202    4.4842 H         1 PHENYL      0.0367 
     34 H12         3.7868    4.1885    3.3922 H         1 PHENYL      0.0412 
     35 H13         2.4879    2.9826    3.2535 H         1 PHENYL      0.0412 
     36 H14         3.3583    3.5435    1.7917 H         1 PHENYL      0.0412 
     37 H15         2.1938    0.8208    1.9674 H         1 PHENYL      0.0585 
     38 H16         3.2401   -0.3983    1.1892 H         1 PHENYL      0.0585 
     39 H17         3.2099    1.2721    0.5541 H         1 PHENYL      0.0585 
     40 H18         5.3546    0.8491    6.7000 H         1 PHENYL      0.0443 
     41 H19         4.2063    2.0742    6.0679 H         1 PHENYL      0.0443 
     42 H20         4.9993    2.3276    7.6489 H         1 PHENYL      0.0443 
@<TRIPOS>BOND
     1    1    2 2    
     2    2    3 1    
     3    4    3 1    
     4    5    4 2    
     5    5    1 1    
     6    6    5 1    
     7    7    6 1    
     8    8    7 1    
     9    8    9 2    
    10    8   10 2    
    11   11    8 1    
    12   12   13 ar   
    13   12   17 ar   
    14   17   16 ar   
    15   16   15 ar   
    16   14   15 ar   
    17   13   14 ar   
    18   12   11 1    
    19    1   18 1    
    20    4   19 1    
    21    3   20 1    
    22    7   21 1    
    23   15   22 1    
    24    6   23 1    
    25    6   24 1    
    26   11   25 1    
    27   11   26 1    
    28   13   27 1    
    29   14   28 1    
    30   16   29 1    
    31   17   30 1    
    32   18   31 1    
    33   18   32 1    
    34   18   33 1    
    35   19   34 1    
    36   19   35 1    
    37   19   36 1    
    38   20   37 1    
    39   20   38 1    
    40   20   39 1    
    41   21   40 1    
    42   21   41 1    
    43   21   42 1    
@<TRIPOS>SUBSTRUCTURE
     1 PHENYL     12 PERM              0 ****  ****    0 ROOT 
@<TRIPOS>NORMAL
@<TRIPOS>FF_PBC
FORCE_FIELD_SETUP_FEATURE Force Field Setup information
v1.0  0 0.000000 0.000000 0.000000 0.000000 0.000000 0.000000 NONE 0 0 0 0 1 0 0 0 0 0 0 0 0
@<TRIPOS>RENDERING_ATTRS
ANTIALIASED_LINES 
*
