#	Name:			PISM00859
#	Creating user name:	baoopengkun
#	Creation time:		Thu Dec 13 15:12:19 2018

#	Modifying user name:	baoopengkun
#	Modification time:	Thu Dec 13 22:35:44 2018

@<TRIPOS>MOLECULE
PISM00859
   26    27     1     1     0
SMALL
GAST_HUCK


@<TRIPOS>ATOM
      1 F1         -0.0298    1.8806    1.5150 F         1 <1>        -0.2011 
      2 C2         -2.3153    2.4197    1.7668 C.ar      1 <1>        -0.0480 
      3 C3         -3.5723    2.6339    1.1930 C.ar      1 <1>        -0.0498 
      4 C4         -3.7617    2.5178   -0.1923 C.ar      1 <1>         0.1183 
      5 C5         -2.6553    2.1834   -0.9868 C.ar      1 <1>        -0.0102 
      6 C6         -1.3963    1.9715   -0.4192 C.ar      1 <1>         0.1201 
      7 C7         -1.2240    2.0860    0.9629 C.ar      1 <1>         0.1454 
      8 N8         -4.9853    2.7242   -0.7511 N.pl3     1 <1>         0.1162 
      9 O9         -0.3181    1.6470   -1.2421 O.3       1 <1>        -0.2740 
     10 C10         0.6129    2.7259   -1.3939 C.3       1 <1>         0.2347 
     11 O11        -0.0771    3.8770   -1.9219 O.3       1 <1>        -0.2315 
     12 C12         0.4346    4.0657   -3.1314 C.2       1 <1>         0.2494 
     13 C13         1.4949    3.1405   -3.5161 C.2       1 <1>         0.0292 
     14 C14         1.6056    2.3363   -2.4605 C.2       1 <1>        -0.0021 
     15 C15         2.2735    3.0990   -4.8025 C.3       1 <1>        -0.0323 
     16 O16         0.0440    4.9589   -3.8631 O.2       1 <1>        -0.3691 
     17 H1         -2.1802    2.5115    2.8398 H         1 <1>         0.0543 
     18 H2         -4.3994    2.8924    1.8467 H         1 <1>         0.0417 
     19 H3         -2.7496    2.0833   -2.0627 H         1 <1>         0.0428 
     20 H4          1.1271    2.9803   -0.4524 H         1 <1>         0.1197 
     21 H5          2.3064    1.5069   -2.3761 H         1 <1>         0.0705 
     22 H6          2.3031    2.0699   -5.1905 H         1 <1>         0.0347 
     23 H7          3.3013    3.4467   -4.6216 H         1 <1>         0.0347 
     24 H8          1.8026    3.7497   -5.5545 H         1 <1>         0.0347 
     25 O25        -5.9041    3.0341   -0.0239 O.2       1 <1>        -0.1143 
     26 O26        -5.0989    2.5877   -1.9500 O.2       1 <1>        -0.1143 
@<TRIPOS>BOND
     1    7    1 1    
     2    2    3 ar   
     3    3    4 ar   
     4    4    5 ar   
     5    5    6 ar   
     6    6    7 ar   
     7    2    7 ar   
     8    4    8 1    
     9    6    9 1    
    10    9   10 1    
    11   10   11 1    
    12   11   12 1    
    13   12   13 1    
    14   13   14 2    
    15   10   14 1    
    16   13   15 1    
    17   12   16 2    
    18    2   17 1    
    19    3   18 1    
    20    5   19 1    
    21   10   20 1    
    22   14   21 1    
    23   15   22 1    
    24   15   23 1    
    25   15   24 1    
    26    8   25 2    
    27    8   26 2    
@<TRIPOS>SUBSTRUCTURE
     1 ****        2 TEMP              0 ****  ****    0 ROOT 
@<TRIPOS>NORMAL
@<TRIPOS>FF_PBC
FORCE_FIELD_SETUP_FEATURE Force Field Setup information
v1.0  0 0.000000 0.000000 0.000000 0.000000 0.000000 0.000000 NONE 0 0 0 0 1 0 0 0 0 0 0 0 0
