#	Name:			PISM00900
#	Creating user name:	baoopengkun
#	Creation time:		Fri Dec 14 10:18:06 2018

#	Modifying user name:	baoopengkun
#	Modification time:	Fri Dec 14 10:20:48 2018

@<TRIPOS>MOLECULE
PISM00900
   31    32     1     1     0
SMALL
GAST_HUCK


@<TRIPOS>ATOM
      1 C1         15.9126    8.4506   -3.7472 C.ar      1 <1>        -0.0378 
      2 C2         16.7619    8.0207   -4.7707 C.ar      1 <1>        -0.0714 
      3 C3         16.3016    7.9805   -6.0899 C.ar      1 <1>        -0.0733 
      4 C4         14.9902    8.3653   -6.3838 C.ar      1 <1>        -0.0714 
      5 C5         14.1429    8.7961   -5.3588 C.ar      1 <1>        -0.0378 
      6 C6         14.6084    8.8590   -4.0416 C.ar      1 <1>         0.0694 
      7 N7         13.8031    9.3152   -3.0519 N.pl3     1 <1>        -0.2324 
      8 C8         13.4021    8.4056   -1.9778 C.3       1 <1>         0.0417 
      9 C9         13.4133   10.5652   -3.0556 C.2       1 <1>         0.1479 
     10 S10        12.3992   11.2040   -1.8308 S.2       1 <1>        -0.2380 
     11 S11        13.9300   11.6984   -4.3345 S.3       1 <1>         0.0086 
     12 C12        15.3205   12.3596   -3.3691 C.3       1 <1>         0.1814 
     13 C13        16.1941   13.1344   -4.3252 C.2       1 <1>        -0.0202 
     14 C14        17.3731   12.5314   -4.4693 C.2       1 <1>         0.0274 
     15 C15        17.2806   11.3770   -3.5823 C.2       1 <1>         0.2478 
     16 O16        16.1413   11.2654   -2.9109 O.3       1 <1>        -0.2497 
     17 O17        18.1860   10.5709   -3.4539 O.2       1 <1>        -0.3691 
     18 C18        18.5339   12.9496   -5.3293 C.3       1 <1>        -0.0323 
     19 H1         16.2686    8.4756   -2.7225 H         1 <1>         0.0536 
     20 H2         17.7798    7.7214   -4.5400 H         1 <1>         0.0587 
     21 H3         16.9624    7.6503   -6.8856 H         1 <1>         0.0520 
     22 H4         14.6299    8.3291   -7.4073 H         1 <1>         0.0587 
     23 H5         13.1203    9.0809   -5.5843 H         1 <1>         0.0536 
     24 H6         13.7900    7.3867   -2.1363 H         1 <1>         0.0539 
     25 H7         12.3040    8.3426   -1.9270 H         1 <1>         0.0539 
     26 H8         13.7883    8.7726   -1.0141 H         1 <1>         0.0539 
     27 H9         14.9643   12.9692   -2.5239 H         1 <1>         0.0979 
     28 H10        15.8974   14.0520   -4.8324 H         1 <1>         0.0687 
     29 H11        18.3407   12.6566   -6.3718 H         1 <1>         0.0347 
     30 H12        19.4568   12.4595   -4.9845 H         1 <1>         0.0347 
     31 H13        18.6699   14.0404   -5.2795 H         1 <1>         0.0347 
@<TRIPOS>BOND
     1    2    1 ar   
     2    2    3 ar   
     3    3    4 ar   
     4    4    5 ar   
     5    5    6 ar   
     6    1    6 ar   
     7    6    7 1    
     8    7    8 1    
     9    7    9 1    
    10    9   10 2    
    11    9   11 1    
    12   11   12 1    
    13   12   13 1    
    14   13   14 2    
    15   14   15 1    
    16   15   16 1    
    17   12   16 1    
    18   15   17 2    
    19   14   18 1    
    20    1   19 1    
    21    2   20 1    
    22    3   21 1    
    23    4   22 1    
    24    5   23 1    
    25    8   24 1    
    26    8   25 1    
    27    8   26 1    
    28   12   27 1    
    29   13   28 1    
    30   18   29 1    
    31   18   30 1    
    32   18   31 1    
@<TRIPOS>SUBSTRUCTURE
     1 ****        2 TEMP              0 ****  ****    0 ROOT 
@<TRIPOS>NORMAL
@<TRIPOS>FF_PBC
FORCE_FIELD_SETUP_FEATURE Force Field Setup information
v1.0  0 0.000000 0.000000 0.000000 0.000000 0.000000 0.000000 NONE 0 0 0 0 1 0 0 0 0 0 0 0 0
