#	Name:			PISM00452
#	Creating user name:	baoopengkun
#	Creation time:		Wed Feb 27 21:32:21 2019

#	Modifying user name:	baoopengkun
#	Modification time:	Wed Feb 27 21:34:23 2019

@<TRIPOS>MOLECULE
PISM00452
   64    67     1     1     0
SMALL
GAST_HUCK


@<TRIPOS>ATOM
      1 Cl1        13.7363    4.0656  -22.7463 Cl        1 <1>        -0.0771 
      2 C2         14.7147    4.3790  -21.3264 C.ar      1 <1>         0.0330 
      3 C3         14.1579    5.0281  -20.2214 C.ar      1 <1>        -0.0546 
      4 C4         14.9299    5.2583  -19.0790 C.ar      1 <1>        -0.0591 
      5 C5         16.2712    4.8575  -19.0317 C.ar      1 <1>        -0.0351 
      6 C6         16.8296    4.2323  -20.1528 C.ar      1 <1>        -0.0591 
      7 C7         16.0539    3.9852  -21.2904 C.ar      1 <1>        -0.0546 
      8 C8         17.1205    5.0859  -17.7652 C.3       1 <1>         0.0210 
      9 C9         17.0729    6.5540  -17.2735 C.3       1 <1>         0.0256 
     10 C10        17.9216    6.6536  -16.0394 C.2       1 <1>         0.0882 
     11 C11        17.9286    5.5671  -15.0371 C.2       1 <1>         0.0102 
     12 C12        17.3991    4.3651  -15.3255 C.2       1 <1>         0.0388 
     13 C13        16.6801    4.1174  -16.6396 C.3       1 <1>         0.0205 
     14 O14        18.6047    7.6499  -15.8715 O.2       1 <1>        -0.4160 
     15 N15        17.4554    3.3509  -14.4950 N.pl3     1 <1>        -0.3086 
     16 C16        18.1520    3.4369  -13.2144 C.3       1 <1>         0.0605 
     17 C17        17.9648    4.8597  -12.6396 C.3       1 <1>         0.0947 
     18 C18        18.5003    5.8814  -13.6734 C.3       1 <1>         0.0219 
     19 C19        20.0248    6.0787  -13.5952 C.ar      1 <1>        -0.0557 
     20 C20        20.9089    5.4659  -14.4895 C.ar      1 <1>        -0.0794 
     21 C21        22.2714    5.7742  -14.4355 C.ar      1 <1>        -0.0481 
     22 C22        22.7638    6.6695  -13.4822 C.ar      1 <1>         0.1120 
     23 C23        21.9082    7.1872  -12.5007 C.ar      1 <1>         0.1130 
     24 C24        20.5384    6.9156  -12.5966 C.ar      1 <1>        -0.0391 
     25 C25        17.6343    2.3289  -12.2544 C.3       1 <1>        -0.0389 
     26 C26        18.6276    4.9917  -11.2949 C.2       1 <1>         0.2419 
     27 O27        18.1093    5.6350  -10.3943 O.2       1 <1>        -0.3697 
     28 O28        19.7944    4.3432  -11.1641 O.3       1 <1>        -0.2767 
     29 C29        20.3640    4.4336   -9.8461 C.3       1 <1>         0.0740 
     30 C30        21.6346    3.5516   -9.7968 C.3       1 <1>        -0.0371 
     31 O31        24.1115    7.0414  -13.5258 O.3       1 <1>        -0.3296 
     32 C32        24.3478    8.4426  -13.7561 C.3       1 <1>         0.0553 
     33 O33        22.4421    7.9622  -11.4561 O.3       1 <1>        -0.3266 
     34 C34        21.6147    8.7405  -10.5731 C.3       1 <1>         0.0567 
     35 H1         13.1226    5.3534  -20.2508 H         1 <1>         0.0606 
     36 H2         14.4637    5.7507  -18.2327 H         1 <1>         0.0557 
     37 H3         17.8713    3.9294  -20.1532 H         1 <1>         0.0557 
     38 H4         16.4895    3.4867  -22.1479 H         1 <1>         0.0606 
     39 H5         18.1813    4.8625  -17.9779 H         1 <1>         0.0514 
     40 H6         16.0671    6.8948  -16.9853 H         1 <1>         0.0495 
     41 H7         17.4600    7.2140  -18.0682 H         1 <1>         0.0495 
     42 H8         15.6022    4.2152  -16.4358 H         1 <1>         0.0519 
     43 H9         16.8691    3.0938  -17.0014 H         1 <1>         0.0519 
     44 H10        16.9983    2.4573  -14.7429 H         1 <1>         0.1850 
     45 H11        19.2265    3.2679  -13.4047 H         1 <1>         0.0590 
     46 H12        16.8794    5.0176  -12.5127 H         1 <1>         0.0610 
     47 H13        18.0630    6.8567  -13.4007 H         1 <1>         0.0506 
     48 H14        20.5455    4.7588  -15.2254 H         1 <1>         0.0435 
     49 H15        22.9601    5.3196  -15.1407 H         1 <1>         0.0492 
     50 H16        19.8466    7.3605  -11.8915 H         1 <1>         0.0449 
     51 H17        17.8463    1.3406  -12.6921 H         1 <1>         0.0254 
     52 H18        16.5466    2.4227  -12.1145 H         1 <1>         0.0254 
     53 H19        18.1187    2.3713  -11.2682 H         1 <1>         0.0254 
     54 H20        19.6558    4.0535   -9.0881 H         1 <1>         0.0610 
     55 H21        20.6229    5.4816   -9.6150 H         1 <1>         0.0610 
     56 H22        21.3745    2.5036  -10.0195 H         1 <1>         0.0255 
     57 H23        22.0878    3.5968   -8.7927 H         1 <1>         0.0255 
     58 H24        22.3689    3.9011  -10.5401 H         1 <1>         0.0255 
     59 H25        24.0172    9.0711  -12.9159 H         1 <1>         0.0570 
     60 H26        23.8389    8.7779  -14.6745 H         1 <1>         0.0570 
     61 H27        25.4334    8.5750  -13.8774 H         1 <1>         0.0570 
     62 H28        22.2818    9.3260   -9.9180 H         1 <1>         0.0573 
     63 H29        20.9745    9.4392  -11.1378 H         1 <1>         0.0573 
     64 H30        20.9922    8.0852   -9.9431 H         1 <1>         0.0573 
@<TRIPOS>BOND
     1    2    1 1    
     2    2    3 ar   
     3    3    4 ar   
     4    4    5 ar   
     5    5    6 ar   
     6    6    7 ar   
     7    2    7 ar   
     8    5    8 1    
     9    8    9 1    
    10    9   10 1    
    11   10   11 1    
    12   11   12 2    
    13   12   13 1    
    14    8   13 1    
    15   10   14 2    
    16   12   15 1    
    17   15   16 1    
    18   16   17 1    
    19   17   18 1    
    20   11   18 1    
    21   18   19 1    
    22   19   20 ar   
    23   20   21 ar   
    24   21   22 ar   
    25   22   23 ar   
    26   23   24 ar   
    27   19   24 ar   
    28   16   25 1    
    29   17   26 1    
    30   26   27 2    
    31   26   28 1    
    32   28   29 1    
    33   29   30 1    
    34   22   31 1    
    35   31   32 1    
    36   23   33 1    
    37   33   34 1    
    38    3   35 1    
    39    4   36 1    
    40    6   37 1    
    41    7   38 1    
    42    8   39 1    
    43    9   40 1    
    44    9   41 1    
    45   13   42 1    
    46   13   43 1    
    47   15   44 1    
    48   16   45 1    
    49   17   46 1    
    50   18   47 1    
    51   20   48 1    
    52   21   49 1    
    53   24   50 1    
    54   25   51 1    
    55   25   52 1    
    56   25   53 1    
    57   29   54 1    
    58   29   55 1    
    59   30   56 1    
    60   30   57 1    
    61   30   58 1    
    62   32   59 1    
    63   32   60 1    
    64   32   61 1    
    65   34   62 1    
    66   34   63 1    
    67   34   64 1    
@<TRIPOS>SUBSTRUCTURE
     1 ****        2 TEMP              0 ****  ****    0 ROOT 
@<TRIPOS>NORMAL
@<TRIPOS>FF_PBC
FORCE_FIELD_SETUP_FEATURE Force Field Setup information
v1.0  0 0.000000 0.000000 0.000000 0.000000 0.000000 0.000000 NONE 0 0 0 0 1 0 0 0 0 0 0 0 0
