#	Name:			PISM00285
#	Creating user name:	baoopengkun
#	Creation time:		Sun Mar 31 18:25:30 2019

#	Modifying user name:	baoopengkun
#	Modification time:	Sun Mar 31 18:29:54 2019

@<TRIPOS>MOLECULE
PISM00285
   57    58     1     1     0
SMALL
GAST_HUCK


@<TRIPOS>ATOM
      1 C1         -6.4773    5.4304   -6.0516 C.ar      1 <1>        -0.0795 
      2 C2         -5.2814    6.0073   -6.4902 C.ar      1 <1>        -0.0432 
      3 C3         -4.3990    5.2792   -7.2994 C.ar      1 <1>         0.1176 
      4 C4         -4.7218    3.9580   -7.6319 C.ar      1 <1>         0.1167 
      5 C5         -5.9108    3.3812   -7.1787 C.ar      1 <1>        -0.0403 
      6 C6         -6.8139    4.1201   -6.4063 C.ar      1 <1>        -0.0595 
      7 O7         -3.2028    5.8328   -7.7859 O.3       1 <1>        -0.3259 
      8 C8         -2.8185    7.1907   -7.5169 C.3       1 <1>         0.0567 
      9 O9         -3.8566    3.1972   -8.4227 O.3       1 <1>        -0.3256 
     10 C10        -2.6913    2.7222   -7.7294 C.3       1 <1>         0.0568 
     11 C11        -8.1380    3.5540   -5.9345 C.2       1 <1>        -0.0763 
     12 C12        -8.8092    2.5908   -6.5809 C.2       1 <1>        -0.0657 
     13 C13       -10.1281    2.0429   -6.0894 C.3       1 <1>         0.0326 
     14 N14       -11.2484    2.5227   -6.9390 N.3       1 <1>        -0.2603 
     15 C15       -11.4789    3.9904   -6.8664 C.3       1 <1>         0.1046 
     16 C16       -11.6799    4.4871   -5.4580 C.2       1 <1>         0.2487 
     17 O17       -12.6030    4.0738   -4.7740 O.2       1 <1>        -0.3689 
     18 O18       -10.7783    5.3832   -5.0299 O.3       1 <1>        -0.2731 
     19 C19       -12.2437    6.8534   -3.6881 C.3       1 <1>        -0.0345 
     20 C20       -11.2791    1.9879   -8.3239 C.3       1 <1>         0.0358 
     21 C21       -11.2235    0.4551   -8.3273 C.ar      1 <1>        -0.0324 
     22 C22       -10.2054   -0.2368   -8.9940 C.ar      1 <1>        -0.0608 
     23 C23       -10.1760   -1.6346   -8.9725 C.ar      1 <1>        -0.0349 
     24 C24       -11.1633   -2.3459   -8.2866 C.ar      1 <1>         0.1248 
     25 C25       -12.1818   -1.6593   -7.6218 C.ar      1 <1>        -0.0349 
     26 C26       -12.2105   -0.2618   -7.6419 C.ar      1 <1>        -0.0608 
     27 F27       -11.1335   -3.6762   -8.2666 F         1 <1>        -0.1893 
     28 H1         -7.1521    6.0130   -5.4319 H         1 <1>         0.0472 
     29 H2         -5.0639    7.0241   -6.1878 H         1 <1>         0.0508 
     30 H3         -6.1065    2.3468   -7.4324 H         1 <1>         0.0473 
     31 H4         -2.6768    7.3566   -6.4380 H         1 <1>         0.0573 
     32 H5         -3.5608    7.8982   -7.9174 H         1 <1>         0.0573 
     33 H6         -1.8588    7.3721   -8.0230 H         1 <1>         0.0573 
     34 H7         -2.9808    2.0812   -6.8821 H         1 <1>         0.0573 
     35 H8         -2.0733    3.5552   -7.3607 H         1 <1>         0.0573 
     36 H9         -2.0922    2.1269   -8.4339 H         1 <1>         0.0573 
     37 H10        -8.5572    3.9741   -5.0210 H         1 <1>         0.0412 
     38 H11        -8.4236    2.1707   -7.5080 H         1 <1>         0.0691 
     39 H12       -10.3165    2.3289   -5.0429 H         1 <1>         0.0619 
     40 H13       -10.0719    0.9437   -6.0911 H         1 <1>         0.0619 
     41 H14       -12.4006    4.2539   -7.4063 H         1 <1>         0.0688 
     42 C42       -11.0187    5.8980   -3.7034 C.3       1 <1>         0.0821 
     43 H15       -10.6412    4.5303   -7.3354 H         1 <1>         0.0688 
     44 H16       -12.0975    7.6569   -4.4259 H         1 <1>         0.0258 
     45 H17       -12.3624    7.3053   -2.6912 H         1 <1>         0.0258 
     46 H18       -13.1752    6.3234   -3.9343 H         1 <1>         0.0258 
     47 H19       -10.4628    2.4219   -8.9218 H         1 <1>         0.0585 
     48 H20       -12.2294    2.2598   -8.8094 H         1 <1>         0.0585 
     49 C49        -9.7390    6.6725   -3.2956 C.3       1 <1>        -0.0345 
     50 H21        -9.4321    0.3036   -9.5304 H         1 <1>         0.0548 
     51 H22        -9.3877   -2.1737   -9.4875 H         1 <1>         0.0587 
     52 H23       -12.9475   -2.2156   -7.0912 H         1 <1>         0.0587 
     53 H24       -13.0016    0.2689   -7.1210 H         1 <1>         0.0548 
     54 H25       -11.1603    5.0781   -2.9755 H         1 <1>         0.0644 
     55 H26        -8.8730    5.9926   -3.2970 H         1 <1>         0.0258 
     56 H27        -9.8451    7.1008   -2.2867 H         1 <1>         0.0258 
     57 H28        -9.5435    7.4873   -4.0096 H         1 <1>         0.0258 
@<TRIPOS>BOND
     1    2    1 ar   
     2    2    3 ar   
     3    3    4 ar   
     4    4    5 ar   
     5    5    6 ar   
     6    1    6 ar   
     7    3    7 1    
     8    7    8 1    
     9    4    9 1    
    10    9   10 1    
    11    6   11 1    
    12   11   12 2    
    13   12   13 1    
    14   13   14 1    
    15   14   15 1    
    16   15   16 1    
    17   16   17 2    
    18   16   18 1    
    19   42   19 1    
    20   14   20 1    
    21   20   21 1    
    22   21   22 ar   
    23   22   23 ar   
    24   23   24 ar   
    25   24   25 ar   
    26   25   26 ar   
    27   21   26 ar   
    28   24   27 1    
    29    1   28 1    
    30    2   29 1    
    31    5   30 1    
    32    8   31 1    
    33    8   32 1    
    34    8   33 1    
    35   10   34 1    
    36   10   35 1    
    37   10   36 1    
    38   11   37 1    
    39   12   38 1    
    40   13   39 1    
    41   13   40 1    
    42   15   41 1    
    43   18   42 1    
    44   15   43 1    
    45   19   44 1    
    46   19   45 1    
    47   19   46 1    
    48   20   47 1    
    49   20   48 1    
    50   42   49 1    
    51   22   50 1    
    52   23   51 1    
    53   25   52 1    
    54   26   53 1    
    55   42   54 1    
    56   49   55 1    
    57   49   56 1    
    58   49   57 1    
@<TRIPOS>SUBSTRUCTURE
     1 ****        2 TEMP              0 ****  ****    0 ROOT 
@<TRIPOS>NORMAL
@<TRIPOS>FF_PBC
FORCE_FIELD_SETUP_FEATURE Force Field Setup information
v1.0  0 0.000000 0.000000 0.000000 0.000000 0.000000 0.000000 NONE 0 0 0 0 1 0 0 0 0 0 0 0 0
