#	Name:			PISM00795
#	Creating user name:	baoopengkun
#	Creation time:		Tue Jan 08 16:08:14 2019

#	Modifying user name:	baoopengkun
#	Modification time:	Tue Jan 08 16:08:31 2019

@<TRIPOS>MOLECULE
PISM00795
   34    37     1     1     0
SMALL
GAST_HUCK


@<TRIPOS>ATOM
      1 C1         18.5026    9.6000  -41.2891 C.2       1 <1>         0.0272 
      2 C2         16.0855    9.9809  -41.9010 C.ar      1 <1>        -0.0671 
      3 C3         14.7633   10.3577  -41.6274 C.ar      1 <1>        -0.0415 
      4 C4         14.4743   10.7873  -40.3330 C.ar      1 <1>         0.0658 
      5 C5         15.4734   10.8428  -39.3720 C.ar      1 <1>        -0.0110 
      6 C6         16.7952   10.4875  -39.6305 C.ar      1 <1>        -0.0642 
      7 C7         14.7182   11.3443  -38.1709 C.2       1 <1>        -0.0081 
      8 C8         13.4580   11.5104  -38.5570 C.2       1 <1>         0.1053 
      9 N9         13.2906   11.1920  -39.8133 N.pl3     1 <1>        -0.2681 
     10 C10        12.0281   11.2620  -40.5385 C.3       1 <1>         0.0371 
     11 C11        12.6742   12.0009  -37.4271 C.2       1 <1>         0.1519 
     12 O12        11.4849   12.2703  -37.3898 O.2       1 <1>        -0.3977 
     13 C13        13.6430   12.1041  -36.3221 C.2       1 <1>        -0.0052 
     14 C14        15.0383   11.6735  -36.7391 C.3       1 <1>         0.0188 
     15 H1         16.3201    9.6353  -42.9019 H         1 <1>         0.0543 
     16 H2         13.9955   10.3153  -42.3919 H         1 <1>         0.0548 
     17 H3         17.5401   10.5770  -38.8501 H         1 <1>         0.0544 
     18 H4         12.1341   11.9432  -41.3963 H         1 <1>         0.0556 
     19 H5         11.2108   11.6306  -39.8997 H         1 <1>         0.0556 
     20 H6         11.7600   10.2592  -40.9039 H         1 <1>         0.0556 
     21 H7         13.3736   12.4503  -35.3255 H         1 <1>         0.0802 
     22 C22        15.5228   10.4262  -35.9633 C.3       1 <1>        -0.0406 
     23 H9         15.7545   12.5085  -36.6773 H         1 <1>         0.0696 
     24 C24        20.7035    8.8476  -41.0610 C.2       1 <1>        -0.0774 
     25 C25        20.6619    8.9984  -42.3864 C.2       1 <1>        -0.0084 
     26 S26        19.0871    9.5755  -42.9764 S.3       1 <1>        -0.0423 
     27 H10        21.5811    8.5028  -40.5141 H         1 <1>         0.0416 
     28 C28        19.4313    9.1979  -40.4144 C.2       1 <1>        -0.0720 
     29 H11        21.5009    8.7919  -43.0501 H         1 <1>         0.0719 
     30 H12        19.3064    9.1158  -39.3364 H         1 <1>         0.0412 
     31 C36        17.0961   10.0335  -40.9240 C.ar      1 <1>        -0.0255 
     32 H8         14.7907    9.6088  -36.0563 H         1 <1>         0.0295 
     33 H13        15.6480   10.6724  -34.8977 H         1 <1>         0.0295 
     34 H14        16.4888   10.0847  -36.3661 H         1 <1>         0.0295 
@<TRIPOS>BOND
     1    1   31 1    
     2    3    2 ar   
     3    4    3 ar   
     4    5    4 ar   
     5    6    5 ar   
     6   24   28 1    
     7    5    7 1    
     8    7    8 2    
     9    8    9 1    
    10    4    9 1    
    11    9   10 1    
    12    8   11 1    
    13   11   12 2    
    14   13   11 1    
    15   14   13 1    
    16    7   14 1    
    17    2   15 1    
    18    3   16 1    
    19    6   17 1    
    20   10   18 1    
    21   10   19 1    
    22   10   20 1    
    23   13   21 1    
    24   14   22 1    
    25   14   23 1    
    26   24   27 1    
    27   31    6 ar   
    28   25   24 2    
    29   26   25 1    
    30    1   26 1    
    31   25   29 1    
    32    1   28 2    
    33   28   30 1    
    34    2   31 ar   
    35   22   32 1    
    36   22   33 1    
    37   22   34 1    
@<TRIPOS>SUBSTRUCTURE
     1 ****        2 TEMP              0 ****  ****    0 ROOT 
@<TRIPOS>NORMAL
@<TRIPOS>FF_PBC
FORCE_FIELD_SETUP_FEATURE Force Field Setup information
v1.0  0 0.000000 0.000000 0.000000 0.000000 0.000000 0.000000 NONE 0 0 0 0 1 0 0 0 0 0 0 0 0
