#	Name:			PISM00122
#	Creating user name:	baoopengkun
#	Creation time:		Mon Dec 17 14:56:31 2018

#	Modifying user name:	baoopengkun
#	Modification time:	Mon Dec 17 14:57:58 2018

@<TRIPOS>MOLECULE
PISM00122
   24    25     1     1     0
SMALL
GAST_HUCK


@<TRIPOS>ATOM
      1 C1         19.8728    4.8999   13.0567 C.ar      1 <1>         0.1219 
      2 C2         20.5801    4.0697   13.9299 C.ar      1 <1>        -0.0268 
      3 C3         21.9684    3.9537   13.8207 C.ar      1 <1>         0.0206 
      4 C4         22.6538    4.6774   12.8413 C.ar      1 <1>        -0.0668 
      5 C5         21.9515    5.5176   11.9724 C.ar      1 <1>        -0.0358 
      6 C6         20.5592    5.6198   12.0714 C.ar      1 <1>         0.1456 
      7 Cl7        22.8486    2.9026   14.9108 Cl        1 <1>        -0.0832 
      8 O8         19.8352    6.4353   11.1980 O.3       1 <1>        -0.2599 
      9 C9         20.2354    6.3772    9.8627 C.ar      1 <1>         0.1281 
     10 C10        20.2342    5.1620    9.1676 C.ar      1 <1>         0.0726 
     11 C11        20.6739    5.1181    7.8415 C.ar      1 <1>        -0.0419 
     12 C12        21.0947    6.2870    7.2015 C.ar      1 <1>         0.0295 
     13 C13        21.0722    7.5044    7.8873 C.ar      1 <1>        -0.0558 
     14 C14        20.6406    7.5477    9.2161 C.ar      1 <1>        -0.0276 
     15 Cl15       19.6817    3.6898    9.9428 Cl        1 <1>        -0.0778 
     16 Cl16       21.6487    6.2266    5.5411 Cl        1 <1>        -0.0806 
     17 O17        18.4838    4.9991   13.1755 O.3       1 <1>        -0.3359 
     18 H1         20.0463    3.5143   14.6930 H         1 <1>         0.0516 
     19 H2         23.7321    4.5862   12.7578 H         1 <1>         0.0504 
     20 H3         22.4920    6.0896   11.2253 H         1 <1>         0.0521 
     21 H4         20.6878    4.1744    7.3067 H         1 <1>         0.0602 
     22 H5         21.3903    8.4135    7.3872 H         1 <1>         0.0598 
     23 H6         20.6203    8.4902    9.7536 H         1 <1>         0.0551 
     24 H7         18.1061    5.5680   12.5115 H         1 <1>         0.2447 
@<TRIPOS>BOND
     1    2    1 ar   
     2    2    3 ar   
     3    3    4 ar   
     4    4    5 ar   
     5    5    6 ar   
     6    1    6 ar   
     7    3    7 1    
     8    6    8 1    
     9    8    9 1    
    10    9   10 ar   
    11   10   11 ar   
    12   11   12 ar   
    13   12   13 ar   
    14   13   14 ar   
    15    9   14 ar   
    16   10   15 1    
    17   12   16 1    
    18    1   17 1    
    19    2   18 1    
    20    4   19 1    
    21    5   20 1    
    22   11   21 1    
    23   13   22 1    
    24   14   23 1    
    25   17   24 1    
@<TRIPOS>SUBSTRUCTURE
     1 ****        2 TEMP              0 ****  ****    0 ROOT 
@<TRIPOS>NORMAL
@<TRIPOS>FF_PBC
FORCE_FIELD_SETUP_FEATURE Force Field Setup information
v1.0  0 0.000000 0.000000 0.000000 0.000000 0.000000 0.000000 NONE 0 0 0 0 1 0 0 0 0 0 0 0 0
