#	Name:			PISM01110
#	Creating user name:	Qinrunwen
#	Creation time:		Tue Apr 02 20:12:32 2019

#	Modifying user name:	Qinrunwen
#	Modification time:	Tue Apr 02 20:14:14 2019

@<TRIPOS>MOLECULE
PISM01110
   24    24     1     1     0
SMALL
GAST_HUCK


@<TRIPOS>ATOM
      1 C1          6.5500   -0.0712   -3.3220 C.ar      1 <1>        -0.0146 
      2 C2          6.1008   -1.3637   -3.6235 C.ar      1 <1>        -0.0501 
      3 C3          6.7493   -2.1465   -4.5828 C.ar      1 <1>        -0.0580 
      4 C4          7.8665   -1.6443   -5.2534 C.ar      1 <1>        -0.0589 
      5 C5          8.3125   -0.3498   -4.9762 C.ar      1 <1>        -0.0580 
      6 C6          7.6436    0.4395   -4.0350 C.ar      1 <1>        -0.0501 
      7 C7          5.8209    0.7065   -2.2416 C.2       1 <1>        -0.0372 
      8 C8          6.3034    1.7801   -1.5969 C.2       1 <1>         0.0186 
      9 C9          5.5452    2.5077   -0.5494 C.2       1 <1>         0.2275 
     10 N10         6.0309    3.6569   -0.0176 N.am      1 <1>        -0.1986 
     11 C11         5.4528    4.4173    0.9449 C.2       1 <1>         0.1608 
     12 N12         6.0431    5.5564    1.3686 N.am      1 <1>        -0.2926 
     13 O13         4.4818    2.0231   -0.2026 O.2       1 <1>        -0.3761 
     14 S14         3.9626    4.0108    1.6877 S.2       1 <1>        -0.2978 
     15 H1          5.2383   -1.7756   -3.1087 H         1 <1>         0.0651 
     16 H2          6.3864   -3.1453   -4.8065 H         1 <1>         0.0626 
     17 H3          8.3839   -2.2557   -5.9862 H         1 <1>         0.0641 
     18 H4          9.1803    0.0441   -5.4972 H         1 <1>         0.0626 
     19 H5          7.9896    1.4539   -3.8822 H         1 <1>         0.0651 
     20 H6          4.8255    0.3531   -1.9691 H         1 <1>         0.0748 
     21 H7          7.2972    2.1549   -1.8250 H         1 <1>         0.0674 
     22 H8          6.9032    3.9818   -0.3730 H         1 <1>         0.2345 
     23 H9          5.5961    6.1000    2.0800 H         1 <1>         0.1945 
     24 H10         6.9116    5.8822    0.9980 H         1 <1>         0.1945 
@<TRIPOS>BOND
     1    2    1 ar   
     2    2    3 ar   
     3    3    4 ar   
     4    4    5 ar   
     5    5    6 ar   
     6    1    6 ar   
     7    1    7 1    
     8    7    8 2    
     9    8    9 1    
    10    9   10 am   
    11   10   11 am   
    12   11   12 am   
    13    9   13 2    
    14   11   14 2    
    15    2   15 1    
    16    3   16 1    
    17    4   17 1    
    18    5   18 1    
    19    6   19 1    
    20    7   20 1    
    21    8   21 1    
    22   10   22 1    
    23   12   23 1    
    24   12   24 1    
@<TRIPOS>SUBSTRUCTURE
     1 ****        2 TEMP              0 ****  ****    0 ROOT 
@<TRIPOS>NORMAL
@<TRIPOS>FF_PBC
FORCE_FIELD_SETUP_FEATURE Force Field Setup information
v1.0  0 0.000000 0.000000 0.000000 0.000000 0.000000 0.000000 NONE 0 0 0 0 1 0 0 0 0 0 0 0 0
