#	Name:			PISM01205
#	Creating user name:	14062
#	Creation time:		Sun Apr 07 00:37:23 2019

#	Modifying user name:	14062
#	Modification time:	Sun Apr 07 00:39:23 2019

@<TRIPOS>MOLECULE
PISM01205
   38    38     1     1     0
SMALL
GAST_HUCK


@<TRIPOS>ATOM
      1 C1         -5.7398    6.0320   -4.3402 C.3       1 BENZYL      0.0964 
      2 C1         -4.8432    5.0733   -5.0947 C.2       1 BENZYL      0.1436 
      3 C2         -4.9750    4.7676   -6.5759 C.ar      1 BENZYL      0.0653 
      4 C3         -4.3508    3.6117   -7.0639 C.ar      1 BENZYL     -0.0416 
      5 C4         -4.4565    3.2465   -8.4081 C.ar      1 BENZYL      0.0073 
      6 C5         -5.1987    4.0397   -9.2843 C.ar      1 BENZYL     -0.0563 
      7 C6         -5.8128    5.2019   -8.8120 C.ar      1 BENZYL     -0.0239 
      8 C7         -5.6857    5.5835   -7.4692 C.ar      1 BENZYL      0.1114 
      9 O9         -3.9648    4.4951   -4.4739 O.2       1 BENZYL     -0.3837 
     10 C10        -7.2023    5.5112   -4.3503 C.3       1 BENZYL     -0.0350 
     11 S11        -5.1746    6.1545   -2.6011 S.3       1 BENZYL     -0.0258 
     12 C12        -6.3613    7.3694   -2.0268 C.2       1 BENZYL      0.1226 
     13 S13        -6.3927    8.8999   -2.8021 S.2       1 BENZYL     -0.2715 
     14 N14        -7.1886    7.0201   -0.9985 N.am      1 BENZYL     -0.2735 
     15 C15        -8.1590    8.0049   -0.5088 C.3       1 BENZYL      0.0380 
     16 C16        -9.4271    7.9537   -1.3963 C.3       1 BENZYL     -0.0423 
     17 C17        -7.1156    5.6817   -0.3986 C.3       1 BENZYL      0.0380 
     18 C18        -5.9995    5.6560    0.6751 C.3       1 BENZYL     -0.0423 
     19 O19        -6.2606    6.7755   -7.0205 O.3       1 BENZYL     -0.3254 
     20 Br20       -3.6174    1.7150   -9.0269 Br        1 BENZYL     -0.0585 
     21 H1         -5.6483    7.0392   -4.7688 H         1 BENZYL      0.0663 
     22 H2         -3.7753    2.9782   -6.3967 H         1 BENZYL      0.0671 
     23 H3         -5.2967    3.7542  -10.3271 H         1 BENZYL      0.0653 
     24 H4         -6.3911    5.8069   -9.5029 H         1 BENZYL      0.0563 
     25 H5         -7.5697    5.3694   -5.3767 H         1 BENZYL      0.0266 
     26 H6         -7.8781    6.2160   -3.8438 H         1 BENZYL      0.0266 
     27 H7         -7.2520    4.5415   -3.8318 H         1 BENZYL      0.0266 
     28 H8         -7.7416    9.0246   -0.4912 H         1 BENZYL      0.0549 
     29 H9         -8.4459    7.7755    0.5306 H         1 BENZYL      0.0549 
     30 H10       -10.1854    8.6604   -1.0240 H         1 BENZYL      0.0251 
     31 H11        -9.8516    6.9380   -1.3835 H         1 BENZYL      0.0251 
     32 H12        -9.1825    8.2169   -2.4362 H         1 BENZYL      0.0251 
     33 H13        -6.9611    4.8884   -1.1463 H         1 BENZYL      0.0549 
     34 H14        -8.0712    5.4389    0.0951 H         1 BENZYL      0.0549 
     35 H15        -5.0194    5.8747    0.2264 H         1 BENZYL      0.0251 
     36 H16        -5.9526    4.6663    1.1562 H         1 BENZYL      0.0251 
     37 H17        -6.2062    6.4148    1.4455 H         1 BENZYL      0.0251 
     38 H18        -6.5806    7.3511   -7.7068 H         1 BENZYL      0.2521 
@<TRIPOS>BOND
     1    2    3 1    
     2    3    4 ar   
     3    3    8 ar   
     4    8    7 ar   
     5    7    6 ar   
     6    6    5 ar   
     7    5    4 ar   
     8    2    1 1    
     9    2    9 2    
    10    1   10 1    
    11    1   11 1    
    12   11   12 1    
    13   12   13 2    
    14   12   14 am   
    15   14   15 1    
    16   15   16 1    
    17   14   17 1    
    18   17   18 1    
    19    8   19 1    
    20    5   20 1    
    21    1   21 1    
    22    4   22 1    
    23    6   23 1    
    24    7   24 1    
    25   10   25 1    
    26   10   26 1    
    27   10   27 1    
    28   15   28 1    
    29   15   29 1    
    30   16   30 1    
    31   16   31 1    
    32   16   32 1    
    33   17   33 1    
    34   17   34 1    
    35   18   35 1    
    36   18   36 1    
    37   18   37 1    
    38   19   38 1    
@<TRIPOS>SUBSTRUCTURE
     1 BENZYL      2 PERM              0 ****  ****    0 ROOT 
@<TRIPOS>NORMAL
@<TRIPOS>FF_PBC
FORCE_FIELD_SETUP_FEATURE Force Field Setup information
v1.0  0 0.000000 0.000000 0.000000 0.000000 0.000000 0.000000 NONE 0 0 0 0 1 0 0 0 0 0 0 0 0
