#	Name:			PISM00968.1
#	Creating user name:	baoopengkun
#	Creation time:		Thu Dec 13 10:35:31 2018

#	Modifying user name:	baoopengkun
#	Modification time:	Thu Dec 13 11:14:28 2018

@<TRIPOS>MOLECULE
PISM00968.1
   44    46     1     1     0
SMALL
GAST_HUCK


@<TRIPOS>ATOM
      1 C1         -4.6689   14.2806   -4.7279 C.ar      1 <1>        -0.0104 
      2 C2         -5.5344   13.5863   -5.5787 C.ar      1 <1>         0.0718 
      3 C3         -5.8979   14.1684   -6.7964 C.ar      1 <1>        -0.0104 
      4 C4         -5.4042   15.4256   -7.1576 C.ar      1 <1>        -0.0159 
      5 C5         -4.5684   16.1457   -6.2936 C.ar      1 <1>         0.0042 
      6 C6         -4.1772   15.5375   -5.0930 C.ar      1 <1>        -0.0159 
      7 C7         -4.0753   17.5687   -6.6532 C.3       1 <1>         0.1026 
      8 O8         -3.5019   18.1857   -5.4861 O.3       1 <1>        -0.4111 
      9 C9         -2.9220   17.4132   -7.6840 C.3       1 <1>        -0.0279 
     10 C10        -5.2413   18.4549   -7.1968 C.3       1 <1>         0.0895 
     11 N11        -4.9552   19.8849   -7.1901 N.pl3     1 <1>        -0.1819 
     12 N12        -4.2481   20.5738   -6.2507 N.2       1 <1>        -0.1907 
     13 C13        -4.1274   21.8207   -6.5172 C.2       1 <1>         0.0618 
     14 N14        -4.8434   21.8978   -7.7601 N.2       1 <1>        -0.2870 
     15 C15        -5.2837   20.7686   -8.0843 C.2       1 <1>         0.1271 
     16 C16        -2.2417   18.7545   -8.0646 C.3       1 <1>        -0.0222 
     17 C17        -1.0212   18.4698   -8.9518 C.ar      1 <1>        -0.0432 
     18 C18         0.2224   18.2006   -8.3688 C.ar      1 <1>        -0.0597 
     19 C19         1.3386   17.9473   -9.1714 C.ar      1 <1>        -0.0546 
     20 C20         1.2167   17.9598  -10.5632 C.ar      1 <1>         0.0330 
     21 C21        -0.0235   18.2231  -11.1501 C.ar      1 <1>        -0.0546 
     22 C22        -1.1396   18.4739  -10.3465 C.ar      1 <1>        -0.0597 
     23 Cl23        2.6155   17.6456  -11.5699 Cl        1 <1>        -0.0771 
     24 C24        -6.0855   12.2066   -5.2017 C.3       1 <1>         0.3942 
     25 F25        -7.3646   12.3492   -4.7652 F         1 <1>        -0.2083 
     26 F26        -6.0753   11.3945   -6.2927 F         1 <1>        -0.2083 
     27 F27        -5.3406   11.6303   -4.2202 F         1 <1>        -0.2083 
     28 H1         -4.3727   13.8474   -3.7771 H         1 <1>         0.0897 
     29 H2         -6.5686   13.6402   -7.4683 H         1 <1>         0.0897 
     30 H3         -5.6797   15.8265   -8.1260 H         1 <1>         0.0895 
     31 H4         -3.4786   16.0311   -4.4251 H         1 <1>         0.0895 
     32 H5         -4.1505   18.4279   -4.8329 H         1 <1>         0.1990 
     33 H6         -3.2922   16.9255   -8.5999 H         1 <1>         0.0240 
     34 H7         -2.1578   16.7573   -7.2351 H         1 <1>         0.0240 
     35 H8         -6.1183   18.3219   -6.5453 H         1 <1>         0.0592 
     36 H9         -5.5170   18.1531   -8.2176 H         1 <1>         0.0592 
     37 H10        -3.6210   22.6035   -5.9547 H         1 <1>         0.0863 
     38 H11        -5.8544   20.5844   -8.9937 H         1 <1>         0.1361 
     39 H12        -1.9202   19.2943   -7.1598 H         1 <1>         0.0422 
     40 H13        -2.9387   19.4047   -8.6123 H         1 <1>         0.0422 
     41 H14         0.3257   18.1857   -7.2883 H         1 <1>         0.0557 
     42 H15         2.3015   17.7404   -8.7156 H         1 <1>         0.0606 
     43 H16        -0.1177   18.2321  -12.2311 H         1 <1>         0.0606 
     44 H17        -2.0997   18.6707  -10.8129 H         1 <1>         0.0557 
@<TRIPOS>BOND
     1    2    1 ar   
     2    2    3 ar   
     3    3    4 ar   
     4    4    5 ar   
     5    5    6 ar   
     6    1    6 ar   
     7    5    7 1    
     8    7    8 1    
     9    7    9 1    
    10    7   10 1    
    11   10   11 1    
    12   11   12 1    
    13   12   13 2    
    14   13   14 1    
    15   14   15 2    
    16   11   15 1    
    17    9   16 1    
    18   16   17 1    
    19   17   18 ar   
    20   18   19 ar   
    21   19   20 ar   
    22   20   21 ar   
    23   21   22 ar   
    24   17   22 ar   
    25   20   23 1    
    26    2   24 1    
    27   24   25 1    
    28   24   26 1    
    29   24   27 1    
    30    1   28 1    
    31    3   29 1    
    32    4   30 1    
    33    6   31 1    
    34    8   32 1    
    35    9   33 1    
    36    9   34 1    
    37   10   35 1    
    38   10   36 1    
    39   13   37 1    
    40   15   38 1    
    41   16   39 1    
    42   16   40 1    
    43   18   41 1    
    44   19   42 1    
    45   21   43 1    
    46   22   44 1    
@<TRIPOS>SUBSTRUCTURE
     1 ****        2 TEMP              0 ****  ****    0 ROOT 
@<TRIPOS>NORMAL
@<TRIPOS>FF_PBC
FORCE_FIELD_SETUP_FEATURE Force Field Setup information
v1.0  0 0.000000 0.000000 0.000000 0.000000 0.000000 0.000000 NONE 0 0 0 0 1 0 0 0 0 0 0 0 0
