#	Name:			PISM00930
#	Creating user name:	baoopengkun
#	Creation time:		Wed Dec 12 22:12:23 2018

#	Modifying user name:	baoopengkun
#	Modification time:	Wed Dec 12 22:14:29 2018

@<TRIPOS>MOLECULE
PISM00930
   45    45     1     1     0
SMALL
GAST_HUCK


@<TRIPOS>ATOM
      1 C1         -0.9300   -7.5344    5.2119 C.3       1 <1>        -0.0609 
      2 C2          0.3719   -8.3903    5.0779 C.3       1 <1>        -0.0462 
      3 C3          0.5032   -8.7492    3.5630 C.3       1 <1>        -0.0609 
      4 C4          1.5685   -7.4921    5.5041 C.3       1 <1>        -0.0609 
      5 C5          0.2111   -9.6643    5.9896 C.3       1 <1>        -0.0733 
      6 C6          1.4564  -10.4791    6.5066 C.3       1 <1>        -0.0537 
      7 C7          2.2306  -11.1142    5.3090 C.3       1 <1>        -0.0901 
      8 C8          0.9276  -11.6815    7.3532 C.3       1 <1>        -0.0901 
      9 C9          2.3666   -9.6524    7.4633 C.ar      1 <1>        -0.0623 
     10 C10         3.7540   -9.5345    7.2779 C.ar      1 <1>        -0.0461 
     11 C11         4.5361   -8.7275    8.1094 C.ar      1 <1>         0.0016 
     12 C12         3.9530   -8.0605    9.1864 C.ar      1 <1>         0.1323 
     13 C13         2.5822   -8.1844    9.4077 C.ar      1 <1>         0.0016 
     14 C14         1.8094   -8.9945    8.5714 C.ar      1 <1>        -0.0461 
     15 O15         4.7309   -7.2838   10.0421 O.3       1 <1>        -0.2738 
     16 C16         5.4246   -8.0310   11.0586 C.3       1 <1>         0.1518 
     17 C17         4.4714   -8.8091   11.9360 C.2       1 <1>         0.1341 
     18 C18         4.0258  -10.1820   11.4993 C.3       1 <1>         0.0123 
     19 O19         4.0594   -8.3391   12.9838 O.2       1 <1>        -0.3889 
     20 H1         -1.8135   -8.1341    4.9428 H         1 <1>         0.0235 
     21 H2         -1.0623   -7.1710    6.2430 H         1 <1>         0.0235 
     22 H3         -0.9030   -6.6524    4.5534 H         1 <1>         0.0235 
     23 H4          1.4232   -9.2930    3.3276 H         1 <1>         0.0235 
     24 H5          0.5120   -7.8343    2.9506 H         1 <1>         0.0235 
     25 H6         -0.3478   -9.3643    3.2329 H         1 <1>         0.0235 
     26 H7          1.4818   -7.2028    6.5614 H         1 <1>         0.0235 
     27 H8          1.5919   -6.5702    4.9032 H         1 <1>         0.0235 
     28 H9          2.5254   -8.0077    5.3499 H         1 <1>         0.0235 
     29 H10        -0.4485  -10.3622    5.4504 H         1 <1>         0.0159 
     30 H11        -0.3627   -9.3622    6.8748 H         1 <1>         0.0159 
     31 H12         1.5326  -11.6109    4.6177 H         1 <1>         0.0117 
     32 H13         2.9428  -11.8778    5.6582 H         1 <1>         0.0117 
     33 H14         2.7993  -10.3694    4.7404 H         1 <1>         0.0117 
     34 H15         0.2803  -11.3566    8.1806 H         1 <1>         0.0117 
     35 H16         1.7689  -12.2426    7.7896 H         1 <1>         0.0117 
     36 H17         0.3423  -12.3747    6.7291 H         1 <1>         0.0117 
     37 H18         4.2705  -10.0642    6.4888 H         1 <1>         0.0823 
     38 H19         5.5995   -8.6170    7.9240 H         1 <1>         0.0651 
     39 H20         2.1246   -7.6522   10.2356 H         1 <1>         0.0651 
     40 H21         0.7600   -9.0968    8.8164 H         1 <1>         0.0823 
     41 H22         5.9583   -7.3038   11.6888 H         1 <1>         0.0870 
     42 H23         6.1753   -8.6995   10.6097 H         1 <1>         0.0870 
     43 H24         4.3724  -10.9178   12.2398 H         1 <1>         0.0459 
     44 H25         4.4175  -10.4665   10.5117 H         1 <1>         0.0459 
     45 H26         2.9266  -10.2101   11.4639 H         1 <1>         0.0459 
@<TRIPOS>BOND
     1    2    1 1    
     2    2    3 1    
     3    2    4 1    
     4    2    5 1    
     5    5    6 1    
     6    6    7 1    
     7    6    8 1    
     8    6    9 1    
     9    9   10 ar   
    10   10   11 ar   
    11   11   12 ar   
    12   12   13 ar   
    13   13   14 ar   
    14    9   14 ar   
    15   12   15 1    
    16   15   16 1    
    17   16   17 1    
    18   17   18 1    
    19   17   19 2    
    20    1   20 1    
    21    1   21 1    
    22    1   22 1    
    23    3   23 1    
    24    3   24 1    
    25    3   25 1    
    26    4   26 1    
    27    4   27 1    
    28    4   28 1    
    29    5   29 1    
    30    5   30 1    
    31    7   31 1    
    32    7   32 1    
    33    7   33 1    
    34    8   34 1    
    35    8   35 1    
    36    8   36 1    
    37   10   37 1    
    38   11   38 1    
    39   13   39 1    
    40   14   40 1    
    41   16   41 1    
    42   16   42 1    
    43   18   43 1    
    44   18   44 1    
    45   18   45 1    
@<TRIPOS>SUBSTRUCTURE
     1 ****        2 TEMP              0 ****  ****    0 ROOT 
@<TRIPOS>NORMAL
@<TRIPOS>FF_PBC
FORCE_FIELD_SETUP_FEATURE Force Field Setup information
v1.0  0 0.000000 0.000000 0.000000 0.000000 0.000000 0.000000 NONE 0 0 0 0 1 0 0 0 0 0 0 0 0
