#	Name:			PISM00561
#	Creating user name:	malab
#	Creation time:		Thu Apr 04 21:41:44 2019

#	Modifying user name:	malab
#	Modification time:	Thu Apr 04 21:44:20 2019

@<TRIPOS>MOLECULE
PISM00561
   38    39     1     1     0
SMALL
GAST_HUCK


@<TRIPOS>ATOM
      1 C1         24.4181   10.5552   -4.8693 C.3       1 <1>        -0.0559 
      2 C2         25.9833   12.0057   -6.2398 C.3       1 <1>        -0.0559 
      3 H1         24.8323   10.9593   -3.9327 H         1 <1>         0.0238 
      4 H2         24.9990    9.6604   -5.1411 H         1 <1>         0.0238 
      5 H3         23.3833   10.2383   -4.6732 H         1 <1>         0.0238 
      6 H4         26.5765   11.1182   -6.5079 H         1 <1>         0.0238 
      7 C7         23.6853   12.8855   -5.6154 C.3       1 <1>         0.0217 
      8 C8         24.4933   11.6156   -6.0098 C.3       1 <1>        -0.0064 
      9 C9         23.9021   11.0291   -7.3256 C.3       1 <1>         0.0217 
     10 C10        22.4270   10.7613   -7.2069 C.2       1 <1>         0.1095 
     11 C11        21.5818   11.5040   -6.2533 C.2       1 <1>         0.0864 
     12 C12        22.2201   12.5759   -5.4647 C.2       1 <1>         0.1095 
     13 O13        21.5569   13.2265   -4.6739 O.2       1 <1>        -0.4046 
     14 O14        21.9120    9.9046   -7.9091 O.2       1 <1>        -0.4046 
     15 C15        20.2792   11.2121   -6.1072 C.2       1 <1>         0.0700 
     16 N16        19.6789   10.2792   -6.8044 N.pl3     1 <1>        -0.2483 
     17 C17        18.3656    9.9978   -6.6281 C.ar      1 <1>         0.1012 
     18 C18        17.8637    9.6909   -5.3586 C.ar      1 <1>        -0.0063 
     19 C19        16.5102    9.3841   -5.1961 C.ar      1 <1>        -0.0389 
     20 C20        15.6525    9.3944   -6.3000 C.ar      1 <1>        -0.0409 
     21 C21        16.1417    9.7258   -7.5688 C.ar      1 <1>         0.0390 
     22 C22        17.5028   10.0102   -7.7275 C.ar      1 <1>        -0.0064 
     23 C23        15.2124    9.7890   -8.7853 C.3       1 <1>         0.3740 
     24 H5         26.4160   12.4498   -5.3300 H         1 <1>         0.0238 
     25 H6         26.0720   12.7394   -7.0556 H         1 <1>         0.0238 
     26 H7         23.7877   13.6752   -6.3755 H         1 <1>         0.0481 
     27 H8         24.0690   13.2812   -4.6610 H         1 <1>         0.0481 
     28 H9         24.4188   10.0881   -7.5713 H         1 <1>         0.0481 
     29 H10        24.0358   11.7260   -8.1660 H         1 <1>         0.0481 
     30 H11        19.7146   11.7938   -5.3748 H         1 <1>         0.1322 
     31 H12        20.2095    9.7528   -7.5274 H         1 <1>         0.2284 
     32 H13        18.5266    9.6820   -4.4986 H         1 <1>         0.0798 
     33 H14        16.1234    9.1347   -4.2116 H         1 <1>         0.0675 
     34 H15        14.6045    9.1464   -6.1659 H         1 <1>         0.0775 
     35 H16        17.8960   10.2508   -8.7092 H         1 <1>         0.0764 
     36 F40        15.8567    9.3248   -9.8891 F         1 <1>        -0.2206 
     37 F41        14.8531   11.0837   -8.9929 F         1 <1>        -0.2206 
     38 F42        14.0945    9.0402   -8.5894 F         1 <1>        -0.2206 
@<TRIPOS>BOND
     1    8    1 1    
     2    8    2 1    
     3    1    3 1    
     4    1    4 1    
     5    1    5 1    
     6    2    6 1    
     7    2   24 1    
     8    7    8 1    
     9    8    9 1    
    10    9   10 1    
    11   11   10 1    
    12   12   11 1    
    13    7   12 1    
    14   12   13 2    
    15   10   14 2    
    16   11   15 2    
    17   15   16 1    
    18   16   17 1    
    19   17   18 ar   
    20   18   19 ar   
    21   19   20 ar   
    22   21   20 ar   
    23   22   21 ar   
    24   17   22 ar   
    25   21   23 1    
    26    2   25 1    
    27    7   26 1    
    28    7   27 1    
    29    9   28 1    
    30    9   29 1    
    31   15   30 1    
    32   16   31 1    
    33   18   32 1    
    34   19   33 1    
    35   20   34 1    
    36   22   35 1    
    37   23   36 1    
    38   23   37 1    
    39   23   38 1    
@<TRIPOS>SUBSTRUCTURE
     1 ****        7 TEMP              0 ****  ****    0 ROOT 
@<TRIPOS>NORMAL
@<TRIPOS>FF_PBC
FORCE_FIELD_SETUP_FEATURE Force Field Setup information
v1.0  0 0.000000 0.000000 0.000000 0.000000 0.000000 0.000000 NONE 0 0 0 0 1 0 0 0 0 0 0 0 0
