#	Name:			PISM00419
#	Creating user name:	malab
#	Creation time:		Tue Apr 09 23:41:05 2019

#	Modifying user name:	malab
#	Modification time:	Tue Apr 09 23:49:42 2019

@<TRIPOS>MOLECULE
PISM00419
   39    39     1     2     0
SMALL
USER_CHARGES


@<TRIPOS>ATOM
      1 C1         -8.6014   -3.9550   -4.9038 C.3       1 <1>         0.0000 
      2 C2         -8.1104   -5.4274   -4.8380 C.3       1 <1>         0.0000 
      3 C3         -6.6343   -5.4900   -5.1068 C.2       1 <1>         0.0000 
      4 C4         -5.7581   -4.3277   -4.8685 C.2       1 <1>         0.0000 
      5 C5         -6.2374   -3.1895   -4.3367 C.2       1 <1>         0.0000 
      6 C6         -7.7131   -3.0664   -3.9740 C.3       1 <1>         0.0000 
      7 O7         -6.1549   -6.5277   -5.5351 O.2       1 <1>         0.0000 
      8 C8         -5.3736   -1.9784   -4.0453 C.3       1 <1>         0.0000 
      9 C9        -10.0948   -3.9062   -4.4588 C.3       1 <1>         0.0000 
     10 C10        -8.5119   -3.4359   -6.3736 C.3       1 <1>         0.0000 
     11 I11        -3.7346   -4.5873   -5.4168 I         1 <1>         0.0000 
     12 H1         -8.6475   -6.0300   -5.5877 H         1 <1>         0.0000 
     13 H2         -8.2964   -5.8776   -3.8510 H         1 <1>         0.0000 
     14 O14        -8.2001   -1.7184   -4.1440 O.3       1 <1>         0.0000 
     15 C15        -7.8328   -3.5114   -2.5297 C.2       1 <1>         0.0000 
     16 H3         -4.2957   -2.1467   -4.1556 H         1 <1>         0.0000 
     17 H4         -5.5362   -1.6570   -3.0055 H         1 <1>         0.0000 
     18 H5         -5.6505   -1.1590   -4.7253 H         1 <1>         0.0000 
     19 C19        -8.6735   -2.9626   -1.6428 C.2       1 <1>         0.0000 
     20 C20        -8.7694   -3.4300   -0.2444 C.2       1 <1>         0.0000 
     21 C21        -8.8155   -2.5732    0.7875 C.2       1 <1>         0.0000 
     22 C22        -8.7307   -1.0998    0.7126 C.2       1 <1>         0.0000 
     23 C23        -8.8297   -4.9186    0.0140 C.3       1 <1>         0.0000 
     24 O24        -9.0143   -0.4450    1.7052 O.2       1 <1>         0.0000 
     25 O25        -8.3365   -0.5016   -0.4172 O.3       1 <1>         0.0000 
     26 H6        -10.7173   -4.5005   -5.1453 H         1 <1>         0.0000 
     27 H7        -10.4727   -2.8727   -4.4629 H         1 <1>         0.0000 
     28 H8        -10.2286   -4.3188   -3.4479 H         1 <1>         0.0000 
     29 H9         -7.4774   -3.4360   -6.7461 H         1 <1>         0.0000 
     30 H10        -8.8992   -2.4088   -6.4518 H         1 <1>         0.0000 
     31 H11        -9.1105   -4.0701   -7.0452 H         1 <1>         0.0000 
     32 H12        -7.8089   -1.0739   -3.5653 H         1 <1>         0.0000 
     33 H13        -7.1952   -4.3306   -2.1944 H         1 <1>         0.0000 
     34 H14        -9.3304   -2.1468   -1.9410 H         1 <1>         0.0000 
     35 H15        -8.9174   -2.9827    1.7934 H         1 <1>         0.0000 
     36 H16        -9.1125   -5.4676   -0.8974 H         1 <1>         0.0000 
     37 H17        -9.5729   -5.1542    0.7912 H         1 <1>         0.0000 
     38 H18        -7.8419   -5.2705    0.3471 H         1 <1>         0.0000 
     39 H19        -8.3120    0.4479   -0.3602 H         1 <1>         0.0000 
@<TRIPOS>BOND
     1    2    1 1    
     2    2    3 1    
     3    3    4 1    
     4    4    5 2    
     5    5    6 1    
     6    1    6 1    
     7    3    7 2    
     8    5    8 1    
     9    1    9 1    
    10    1   10 1    
    11    4   11 1    
    12    2   12 1    
    13    2   13 1    
    14    6   14 1    
    15    6   15 1    
    16    8   16 1    
    17    8   17 1    
    18    8   18 1    
    19   15   19 2    
    20   19   20 1    
    21   20   21 2    
    22   21   22 1    
    23   20   23 1    
    24   22   24 2    
    25   22   25 1    
    26    9   26 1    
    27    9   27 1    
    28    9   28 1    
    29   10   29 1    
    30   10   30 1    
    31   10   31 1    
    32   14   32 1    
    33   15   33 1    
    34   19   34 1    
    35   21   35 1    
    36   23   36 1    
    37   23   37 1    
    38   23   38 1    
    39   25   39 1    
@<TRIPOS>SUBSTRUCTURE
     1 ****        2 TEMP              0 ****  ****    0 ROOT 
@<TRIPOS>NORMAL
@<TRIPOS>FF_PBC
FORCE_FIELD_SETUP_FEATURE Force Field Setup information
v1.0  0 0.000000 0.000000 0.000000 0.000000 0.000000 0.000000 NONE 0 0 0 0 0 0 0 0 0 0 0 0 0
@<TRIPOS>RENDERING_ATTRS
ANTIALIASED_LINES 
*
