#	Name:			PISM00908.1
#	Creating user name:	baoopengkun
#	Creation time:		Fri Dec 14 10:31:16 2018

#	Modifying user name:	baoopengkun
#	Modification time:	Fri Dec 14 10:38:13 2018

@<TRIPOS>MOLECULE
PISM00908.1
   29    31     1     1     0
SMALL
GAST_HUCK


@<TRIPOS>ATOM
      1 C1         25.2305   17.5415  -13.8838 C.ar      1 <1>        -0.0486 
      2 C2         25.0230   18.9274  -13.8711 C.ar      1 <1>        -0.0270 
      3 C3         24.0514   19.5314  -13.0487 C.ar      1 <1>         0.1415 
      4 C4         23.2598   18.7227  -12.2148 C.ar      1 <1>        -0.0116 
      5 C5         23.4728   17.3450  -12.2326 C.ar      1 <1>         0.0625 
      6 C6         24.4342   16.7652  -13.0450 C.ar      1 <1>         0.0597 
      7 C7         24.3570   15.2825  -12.7783 C.2       1 <1>         0.2347 
      8 N8         23.4012   15.0392  -11.8603 N.am      1 <1>        -0.1420 
      9 C9         22.8289   16.2005  -11.4900 C.2       1 <1>         0.2415 
     10 O10        25.0669   14.4545  -13.3227 O.2       1 <1>        -0.3731 
     11 O11        21.9282   16.3320  -10.6797 O.2       1 <1>        -0.3668 
     12 C12        23.0126   13.7240  -11.3825 C.3       1 <1>         0.2213 
     13 O13        22.2802   13.0569  -12.4294 O.3       1 <1>        -0.2348 
     14 C14        23.0135   11.9970  -12.7479 C.2       1 <1>         0.2491 
     15 C15        24.2406   11.8281  -11.9775 C.2       1 <1>         0.0288 
     16 C16        24.2345   12.8685  -11.1462 C.2       1 <1>        -0.0059 
     17 C17        25.2722   10.7415  -12.1079 C.3       1 <1>        -0.0323 
     18 O18        22.6726   11.2160  -13.6196 O.2       1 <1>        -0.3691 
     19 N19        23.8784   20.8814  -13.0584 N.pl3     1 <1>         0.1256 
     20 O20        24.5790   21.5466  -13.7901 O.2       1 <1>        -0.1116 
     21 O21        23.0310   21.3552  -12.3329 O.2       1 <1>        -0.1116 
     22 H1         25.9801   17.0805  -14.5193 H         1 <1>         0.0648 
     23 H2         25.6425   19.5339  -14.5241 H         1 <1>         0.0563 
     24 H3         22.4949   19.1311  -11.5630 H         1 <1>         0.0586 
     25 H4         22.3954   13.7793  -10.4702 H         1 <1>         0.1152 
     26 H5         25.0044   13.0826  -10.4062 H         1 <1>         0.0702 
     27 H6         25.0293    9.9207  -11.4171 H         1 <1>         0.0347 
     28 H7         26.2729   11.1318  -11.8690 H         1 <1>         0.0347 
     29 H8         25.2788   10.3540  -13.1377 H         1 <1>         0.0347 
@<TRIPOS>BOND
     1    2    1 ar   
     2    2    3 ar   
     3    3    4 ar   
     4    4    5 ar   
     5    5    6 ar   
     6    1    6 ar   
     7    6    7 1    
     8    7    8 am   
     9    8    9 am   
    10    5    9 1    
    11    7   10 2    
    12    9   11 2    
    13    8   12 1    
    14   12   13 1    
    15   13   14 1    
    16   14   15 1    
    17   15   16 2    
    18   12   16 1    
    19   15   17 1    
    20   14   18 2    
    21    3   19 1    
    22   19   20 2    
    23   19   21 2    
    24    1   22 1    
    25    2   23 1    
    26    4   24 1    
    27   12   25 1    
    28   16   26 1    
    29   17   27 1    
    30   17   28 1    
    31   17   29 1    
@<TRIPOS>SUBSTRUCTURE
     1 ****        2 TEMP              0 ****  ****    0 ROOT 
@<TRIPOS>NORMAL
@<TRIPOS>FF_PBC
FORCE_FIELD_SETUP_FEATURE Force Field Setup information
v1.0  0 0.000000 0.000000 0.000000 0.000000 0.000000 0.000000 NONE 0 0 0 0 1 0 0 0 0 0 0 0 0
