#	Name:			PISM01127
#	Creating user name:	14062
#	Creation time:		Sat Apr 06 23:17:39 2019

#	Modifying user name:	14062
#	Modification time:	Sat Apr 06 23:19:07 2019

@<TRIPOS>MOLECULE
PISM01127
   34    37     1     2     0
SMALL
GAST_HUCK


@<TRIPOS>ATOM
      1 C1         -8.7489   10.2669   -9.3761 C.ar      1 BENZYL     -0.0306 
      2 C2         -7.8584    9.4211  -10.0448 C.ar      1 BENZYL     -0.0507 
      3 C3         -7.2033    8.4018   -9.3462 C.ar      1 BENZYL     -0.0509 
      4 C4         -7.4403    8.2265   -7.9793 C.ar      1 BENZYL     -0.0316 
      5 C5         -8.3304    9.0712   -7.3114 C.ar      1 BENZYL      0.0688 
      6 C6         -8.9844   10.0928   -8.0101 C.ar      1 BENZYL      0.0732 
      7 N7         -9.8415   10.9079   -7.3611 N.ar      1 BENZYL     -0.2700 
      8 C8        -10.0644   10.7469   -6.0405 C.ar      1 BENZYL      0.0709 
      9 C9         -9.4159    9.7224   -5.3430 C.ar      1 BENZYL      0.0620 
     10 N10        -8.5617    8.9048   -5.9926 N.ar      1 BENZYL     -0.2795 
     11 C11        -9.6531    9.5479   -3.9777 C.ar      1 BENZYL     -0.0152 
     12 C12       -10.5441   10.3870   -3.2977 C.ar      1 BENZYL      0.0563 
     13 C13       -11.1706   11.4272   -3.9972 C.ar      1 BENZYL     -0.0232 
     14 C14       -10.9394   11.6002   -5.3654 C.ar      1 BENZYL     -0.0291 
     15 N15       -10.7976   10.1803   -1.9139 N.3       1 BENZYL     -0.2164 
     16 C2        -11.8870   10.8186   -1.2774 C.ar      1 BENZYL      0.0447 
     17 C3        -13.2003   10.4623   -1.6000 C.ar      1 BENZYL     -0.0421 
     18 C4        -14.2729   11.0992   -0.9688 C.ar      1 BENZYL     -0.0704 
     19 C5        -14.0321   12.0919   -0.0141 C.ar      1 BENZYL     -0.0720 
     20 C6        -12.7193   12.4480    0.3092 C.ar      1 BENZYL     -0.0704 
     21 C7        -11.6476   11.8112   -0.3236 C.ar      1 BENZYL     -0.0421 
     22 H1         -9.2597   11.0600   -9.9119 H         1 BENZYL      0.0674 
     23 H2         -7.6758    9.5561  -11.1066 H         1 BENZYL      0.0672 
     24 H3         -6.5103    7.7461   -9.8649 H         1 BENZYL      0.0681 
     25 H4         -6.9363    7.4370   -7.4315 H         1 BENZYL      0.0662 
     26 H5         -9.1364    8.7538   -3.4500 H         1 BENZYL      0.0529 
     27 H6        -11.8396   12.1132   -3.4890 H         1 BENZYL      0.0671 
     28 H7        -11.4360   12.3969   -5.9096 H         1 BENZYL      0.0679 
     29 H8        -10.8162    9.1245   -1.6785 H         1 BENZYL      0.1815 
     30 H9        -13.3848    9.6923   -2.3420 H         1 BENZYL      0.0544 
     31 H10       -15.2926   10.8231   -1.2201 H         1 BENZYL      0.0591 
     32 H11       -14.8650   12.5866    0.4764 H         1 BENZYL      0.0531 
     33 H12       -12.5320   13.2183    1.0512 H         1 BENZYL      0.0591 
     34 H13       -10.6268   12.0845   -0.0778 H         1 BENZYL      0.0544 
@<TRIPOS>BOND
     1    1    2 ar   
     2    3    2 ar   
     3    4    3 ar   
     4    5    4 ar   
     5    5    6 ar   
     6    6    1 ar   
     7    7    6 ar   
     8    8    7 ar   
     9    9    8 ar   
    10    9   10 ar   
    11   10    5 ar   
    12   11    9 ar   
    13   12   11 ar   
    14   12   13 ar   
    15   13   14 ar   
    16   14    8 ar   
    17   15   16 1    
    18   16   17 ar   
    19   16   21 ar   
    20   21   20 ar   
    21   20   19 ar   
    22   18   19 ar   
    23   17   18 ar   
    24   15   12 1    
    25    1   22 1    
    26    2   23 1    
    27    3   24 1    
    28    4   25 1    
    29   11   26 1    
    30   13   27 1    
    31   14   28 1    
    32   15   29 1    
    33   17   30 1    
    34   18   31 1    
    35   19   32 1    
    36   20   33 1    
    37   21   34 1    
@<TRIPOS>SUBSTRUCTURE
     1 BENZYL     15 PERM              0 ****  ****    0 ROOT 
@<TRIPOS>NORMAL
@<TRIPOS>FF_PBC
FORCE_FIELD_SETUP_FEATURE Force Field Setup information
v1.0  0 0.000000 0.000000 0.000000 0.000000 0.000000 0.000000 NONE 0 0 0 0 1 0 0 0 0 0 0 0 0
@<TRIPOS>RENDERING_ATTRS
ANTIALIASED_LINES 
*
