#	Name:			PISM00724
#	Creating user name:	baoopengkun
#	Creation time:		Sun Jan 20 21:58:07 2019

#	Modifying user name:	baoopengkun
#	Modification time:	Sun Jan 20 22:00:52 2019

@<TRIPOS>MOLECULE
PISM00724
   83    87     1     1     0
SMALL
GAST_HUCK


@<TRIPOS>ATOM
      1 C1         -5.3780    9.1907   -4.7140 C.3       1 <1>        -0.0163 
      2 C2         -6.7063    8.4595   -5.0536 C.3       1 <1>         0.0819 
      3 C3         -7.1097    7.4750   -3.9199 C.3       1 <1>         0.0835 
      4 C4         -7.1804    8.2107   -2.5518 C.3       1 <1>        -0.0028 
      5 C5         -5.8103    8.8849   -2.2529 C.3       1 <1>         0.0681 
      6 C6         -5.3882    9.9356   -3.3405 C.3       1 <1>        -0.0055 
      7 C7         -3.9725   10.5526   -2.9921 C.3       1 <1>        -0.0276 
      8 C8         -2.9939    9.5320   -2.3263 C.3       1 <1>        -0.0063 
      9 C9         -3.3727    9.2924   -0.8229 C.3       1 <1>         0.0801 
     10 O10        -4.5983    9.8717   -0.3121 O.3       1 <1>        -0.2763 
     11 C11        -5.7645    9.5348   -0.8930 C.2       1 <1>         0.2374 
     12 O12        -6.8036    9.7860   -0.3084 O.2       1 <1>        -0.3701 
     13 C13        -3.2584   11.3006   -4.1617 C.3       1 <1>        -0.0487 
     14 C14        -2.0299   12.1316   -3.6626 C.3       1 <1>        -0.0468 
     15 C15        -1.1436   11.4143   -2.5824 C.3       1 <1>        -0.0257 
     16 C16        -1.4997    9.9028   -2.6232 C.3       1 <1>        -0.0298 
     17 C17        -0.3725    9.1758   -1.8505 C.3       1 <1>        -0.0491 
     18 C18         0.8710   10.0720   -2.1218 C.3       1 <1>        -0.0491 
     19 C19         0.3913   11.3331   -2.9147 C.3       1 <1>        -0.0304 
     20 O20        -6.4980    7.7635   -6.2985 O.3       1 <1>        -0.3892 
     21 O21        -6.1396    6.4110   -3.8653 O.3       1 <1>        -0.3891 
     22 C22         5.5027   12.0396   -1.1451 C.3       1 <1>        -0.0360 
     23 C23        -6.4196   11.1175   -3.3890 C.3       1 <1>        -0.0568 
     24 C24        -1.3629   12.0400   -1.1664 C.3       1 <1>        -0.0590 
     25 C25         1.3056   12.5898   -2.6742 C.3       1 <1>        -0.0120 
     26 C26         2.8136   12.3091   -3.0194 C.3       1 <1>         0.0841 
     27 C27         3.7962   13.4270   -2.5298 C.3       1 <1>         0.0841 
     28 C28         5.2874   12.9655   -2.3925 C.3       1 <1>        -0.0125 
     29 C29         6.9915   12.0793    0.4508 C.3       1 <1>        -0.0525 
     30 C30         5.5987   12.7223    0.2439 C.3       1 <1>        -0.0499 
     31 C31         6.9182   11.4350   -0.9549 C.3       1 <1>        -0.0499 
     32 C32         0.7995   13.8473   -3.4375 C.3       1 <1>        -0.0597 
     33 O33         3.0503   12.1750   -4.4374 O.3       1 <1>        -0.3890 
     34 O34         3.7295   14.5286   -3.4540 O.3       1 <1>        -0.3890 
     35 C35         6.2183   14.2213   -2.4050 C.3       1 <1>        -0.0597 
     36 H1         -5.1810    9.8957   -5.5356 H         1 <1>         0.0298 
     37 H2         -4.5777    8.4353   -4.7235 H         1 <1>         0.0298 
     38 H3         -7.5160    9.1883   -5.2173 H         1 <1>         0.0619 
     39 H4         -8.0994    7.0487   -4.1653 H         1 <1>         0.0621 
     40 H5         -7.3991    7.4708   -1.7643 H         1 <1>         0.0319 
     41 H6         -8.0138    8.9269   -2.5346 H         1 <1>         0.0319 
     42 H7         -5.1406    8.0162   -2.2223 H         1 <1>         0.0560 
     43 H8         -4.1388   11.3467   -2.2496 H         1 <1>         0.0311 
     44 H9         -3.0903    8.5631   -2.8432 H         1 <1>         0.0332 
     45 H10        -2.6455    9.7829   -0.1679 H         1 <1>         0.0616 
     46 H11        -3.3366    8.2195   -0.5687 H         1 <1>         0.0616 
     47 H12        -3.9333   12.0016   -4.6741 H         1 <1>         0.0268 
     48 H13        -2.9401   10.5694   -4.9210 H         1 <1>         0.0268 
     49 H14        -2.4164   13.0777   -3.2487 H         1 <1>         0.0271 
     50 H15        -1.4372   12.3896   -4.5550 H         1 <1>         0.0271 
     51 H16        -1.3053    9.5863   -3.6672 H         1 <1>         0.0310 
     52 H17        -0.2369    8.1406   -2.2099 H         1 <1>         0.0268 
     53 H18        -0.5615    9.1177   -0.7697 H         1 <1>         0.0268 
     54 H19         1.6263    9.5072   -2.6944 H         1 <1>         0.0268 
     55 H20         1.3221   10.3668   -1.1603 H         1 <1>         0.0268 
     56 H21         0.4657   11.0937   -3.9873 H         1 <1>         0.0310 
     57 H22        -7.2552    7.2645   -6.5894 H         1 <1>         0.2099 
     58 H23        -6.3581    5.7288   -3.2380 H         1 <1>         0.2099 
     59 H24         4.7825   11.2091   -1.0940 H         1 <1>         0.0304 
     60 H25        -6.1523   11.8504   -4.1600 H         1 <1>         0.0237 
     61 H26        -6.4554   11.6466   -2.4242 H         1 <1>         0.0237 
     62 H27        -7.4475   10.8165   -3.6125 H         1 <1>         0.0237 
     63 H28        -1.0583   13.0955   -1.1540 H         1 <1>         0.0235 
     64 H29        -0.7839   11.5222   -0.3885 H         1 <1>         0.0235 
     65 H30        -2.4188   12.0259   -0.8696 H         1 <1>         0.0235 
     66 H31         1.2674   12.8146   -1.5963 H         1 <1>         0.0327 
     67 H32         3.1080   11.3713   -2.5374 H         1 <1>         0.0622 
     68 H33         3.4885   13.8083   -1.5430 H         1 <1>         0.0622 
     69 H34         5.5396   12.3608   -3.2806 H         1 <1>         0.0326 
     70 H35         7.8065   12.8137    0.5559 H         1 <1>         0.0265 
     71 H36         7.0107   11.3390    1.2691 H         1 <1>         0.0265 
     72 H37         4.8388   12.3668    0.9598 H         1 <1>         0.0268 
     73 H38         5.6363   13.8207    0.2416 H         1 <1>         0.0268 
     74 H39         6.9279   10.3329   -0.9197 H         1 <1>         0.0268 
     75 H40         7.6892   11.7943   -1.6523 H         1 <1>         0.0268 
     76 H41         0.8726   13.6900   -4.5234 H         1 <1>         0.0233 
     77 H42         1.3830   14.7382   -3.1696 H         1 <1>         0.0233 
     78 H43        -0.2395   14.0898   -3.1874 H         1 <1>         0.0233 
     79 H44         2.5961   11.4454   -4.8443 H         1 <1>         0.2099 
     80 H45         3.9000   14.2309   -4.3436 H         1 <1>         0.2099 
     81 H46         7.2488   13.9968   -2.1002 H         1 <1>         0.0233 
     82 H47         5.8326   15.0103   -1.7428 H         1 <1>         0.0233 
     83 H48         6.2680   14.6453   -3.4207 H         1 <1>         0.0233 
@<TRIPOS>BOND
     1    2    1 1    
     2    2    3 1    
     3    3    4 1    
     4    4    5 1    
     5    6    5 1    
     6    1    6 1    
     7    6    7 1    
     8    7    8 1    
     9    8    9 1    
    10   10    9 1    
    11   11   10 1    
    12   11   12 2    
    13    5   11 1    
    14    7   13 1    
    15   13   14 1    
    16   14   15 1    
    17   16   15 1    
    18    8   16 1    
    19   16   17 1    
    20   17   18 1    
    21   19   18 1    
    22   15   19 1    
    23    2   20 1    
    24    3   21 1    
    25   28   22 1    
    26    6   23 1    
    27   15   24 1    
    28   19   25 1    
    29   25   26 1    
    30   26   27 1    
    31   27   28 1    
    32   31   29 1    
    33   22   30 1    
    34   22   31 1    
    35   25   32 1    
    36   26   33 1    
    37   27   34 1    
    38   28   35 1    
    39   29   30 1    
    40    1   36 1    
    41    1   37 1    
    42    2   38 1    
    43    3   39 1    
    44    4   40 1    
    45    4   41 1    
    46    5   42 1    
    47    7   43 1    
    48    8   44 1    
    49    9   45 1    
    50    9   46 1    
    51   13   47 1    
    52   13   48 1    
    53   14   49 1    
    54   14   50 1    
    55   16   51 1    
    56   17   52 1    
    57   17   53 1    
    58   18   54 1    
    59   18   55 1    
    60   19   56 1    
    61   20   57 1    
    62   21   58 1    
    63   22   59 1    
    64   23   60 1    
    65   23   61 1    
    66   23   62 1    
    67   24   63 1    
    68   24   64 1    
    69   24   65 1    
    70   25   66 1    
    71   26   67 1    
    72   27   68 1    
    73   28   69 1    
    74   29   70 1    
    75   29   71 1    
    76   30   72 1    
    77   30   73 1    
    78   31   74 1    
    79   31   75 1    
    80   32   76 1    
    81   32   77 1    
    82   32   78 1    
    83   33   79 1    
    84   34   80 1    
    85   35   81 1    
    86   35   82 1    
    87   35   83 1    
@<TRIPOS>SUBSTRUCTURE
     1 ****        2 TEMP              0 ****  ****    0 ROOT 
@<TRIPOS>NORMAL
@<TRIPOS>FF_PBC
FORCE_FIELD_SETUP_FEATURE Force Field Setup information
v1.0  0 0.000000 0.000000 0.000000 0.000000 0.000000 0.000000 NONE 0 0 0 0 1 0 0 0 0 0 0 0 0
