#	Name:			PISM00717
#	Creating user name:	baoopengkun
#	Creation time:		Thu Jan 24 23:07:37 2019

#	Modifying user name:	baoopengkun
#	Modification time:	Thu Jan 24 23:19:52 2019

@<TRIPOS>MOLECULE
PISM00717
   85    88     1     1     0
SMALL
GAST_HUCK


@<TRIPOS>ATOM
      1 C1          1.3398    4.7352    9.1819 C.3       1 <1>        -0.0163 
      2 C2          2.6807    5.4447    9.5208 C.3       1 <1>         0.0819 
      3 C3          3.7692    4.4390   10.0093 C.3       1 <1>         0.0835 
      4 C4          3.6140    3.0245    9.3668 C.3       1 <1>        -0.0028 
      5 C5          2.8871    3.0907    7.9908 C.3       1 <1>         0.0681 
      6 C6          1.4511    3.7337    7.9791 C.3       1 <1>        -0.0055 
      7 C7          0.3047    2.6407    8.0200 C.3       1 <1>        -0.0276 
      8 C8          0.5613    1.5341    9.0935 C.3       1 <1>        -0.0063 
      9 C9          1.6378    0.5020    8.6209 C.3       1 <1>         0.0801 
     10 O10         2.2845    0.7113    7.3502 O.3       1 <1>        -0.2763 
     11 C11         2.9728    1.8430    7.1313 C.2       1 <1>         0.2374 
     12 O12         3.6847    1.8518    6.1416 O.2       1 <1>        -0.3701 
     13 C13        -1.1542    3.1915    8.1559 C.3       1 <1>        -0.0487 
     14 C14        -2.2391    2.0769    7.9393 C.3       1 <1>        -0.0468 
     15 C15        -1.8957    0.6916    8.5914 C.3       1 <1>        -0.0257 
     16 C16        -0.7808    0.9466    9.6436 C.3       1 <1>        -0.0298 
     17 C17        -0.7190   -0.3042   10.5514 C.3       1 <1>        -0.0491 
     18 C18        -2.1825   -0.8214   10.5226 C.3       1 <1>        -0.0491 
     19 C19        -2.9937    0.0829    9.5374 C.3       1 <1>        -0.0304 
     20 H1          1.0235    4.2380   10.1100 H         1 <1>         0.0298 
     21 O21         5.0479    5.0305    9.6974 O.3       1 <1>        -0.3891 
     22 O22         3.1430    6.1755    8.3738 O.3       1 <1>        -0.3892 
     23 C23         1.3106    4.5145    6.6202 C.3       1 <1>        -0.0568 
     24 C24        -1.4684   -0.3459    7.5059 C.3       1 <1>        -0.0590 
     25 C25        -4.2283   -0.6644    8.9243 C.3       1 <1>        -0.0120 
     26 C26        -5.1049   -1.2696   10.0717 C.3       1 <1>         0.0841 
     27 C27        -6.3873   -2.0261    9.6272 C.3       1 <1>         0.0843 
     28 C28        -6.8990   -3.1424   10.6106 C.3       1 <1>        -0.0104 
     29 C29        -6.4135   -4.5858   10.2253 C.3       1 <1>        -0.0415 
     30 C30        -7.1031   -5.6915   11.0793 C.3       1 <1>        -0.0623 
     31 C31        -4.8748   -4.8066   10.1938 C.3       1 <1>        -0.0623 
     32 C32        -5.0489    0.2600    7.9826 C.3       1 <1>        -0.0597 
     33 O33        -5.4220   -0.2800   11.0627 O.3       1 <1>        -0.3890 
     34 O34        -7.3940   -1.0099    9.4099 O.3       1 <1>        -0.3889 
     35 C35        -6.9334   -2.7639   12.1359 C.3       1 <1>        -0.0504 
     36 H2          0.5793    5.5004    8.9547 H         1 <1>         0.0298 
     37 H3          2.5024    6.1878   10.3209 H         1 <1>         0.0619 
     38 H4          3.6975    4.3431   11.1101 H         1 <1>         0.0621 
     39 H5          3.1087    2.3791   10.0895 H         1 <1>         0.0319 
     40 H6          4.6118    2.5773    9.2191 H         1 <1>         0.0319 
     41 H7          3.5601    3.7942    7.4715 H         1 <1>         0.0560 
     42 H8          0.2926    2.1423    7.0381 H         1 <1>         0.0311 
     43 H9          0.9613    1.9991    9.9996 H         1 <1>         0.0332 
     44 H10         1.1554   -0.4569    8.3987 H         1 <1>         0.0616 
     45 H11         2.3872    0.2831    9.4011 H         1 <1>         0.0616 
     46 H12        -1.3750    3.9768    7.4164 H         1 <1>         0.0268 
     47 H13        -1.2722    3.6642    9.1453 H         1 <1>         0.0268 
     48 H14        -2.3777    1.9415    6.8533 H         1 <1>         0.0271 
     49 H15        -3.1896    2.4688    8.3336 H         1 <1>         0.0271 
     50 H16        -1.2056    1.7104   10.3259 H         1 <1>         0.0310 
     51 H17        -0.3794   -0.0524   11.5705 H         1 <1>         0.0268 
     52 H18        -0.0474   -1.0887   10.1768 H         1 <1>         0.0268 
     53 H19        -2.6219   -0.7946   11.5342 H         1 <1>         0.0268 
     54 H20        -2.1683   -1.8692   10.1803 H         1 <1>         0.0268 
     55 H21        -3.4043    0.9183   10.1324 H         1 <1>         0.0310 
     56 H22         5.7925    4.5308   10.0187 H         1 <1>         0.2099 
     57 H23         4.0016    6.5610    8.5307 H         1 <1>         0.2099 
     58 H24         2.1038    5.2576    6.4625 H         1 <1>         0.0237 
     59 H25         0.3683    5.0722    6.5438 H         1 <1>         0.0237 
     60 H26         1.3634    3.8167    5.7695 H         1 <1>         0.0237 
     61 H27        -1.1870   -1.3125    7.9412 H         1 <1>         0.0235 
     62 H28        -0.6274    0.0118    6.9027 H         1 <1>         0.0235 
     63 H29        -2.2889   -0.5294    6.8006 H         1 <1>         0.0235 
     64 H30        -3.8691   -1.5068    8.3144 H         1 <1>         0.0327 
     65 H31        -4.4776   -2.0255   10.5410 H         1 <1>         0.0622 
     66 H32        -6.1560   -2.5046    8.6636 H         1 <1>         0.0622 
     67 H33        -7.9704   -3.2037   10.3625 H         1 <1>         0.0329 
     68 H34        -6.7439   -4.7731    9.1838 H         1 <1>         0.0299 
     69 H35        -8.1974   -5.5956   11.0315 H         1 <1>         0.0232 
     70 H36        -6.8032   -5.6476   12.1332 H         1 <1>         0.0232 
     71 H37        -6.8398   -6.6913   10.7013 H         1 <1>         0.0232 
     72 H38        -4.6536   -5.8260    9.8342 H         1 <1>         0.0232 
     73 H39        -4.4283   -4.6967   11.1904 H         1 <1>         0.0232 
     74 H40        -4.3818   -4.1096    9.4999 H         1 <1>         0.0232 
     75 H41        -4.4516    0.5560    7.1107 H         1 <1>         0.0233 
     76 H42        -5.3797    1.1702    8.5033 H         1 <1>         0.0233 
     77 H43        -5.9379   -0.2517    7.5894 H         1 <1>         0.0233 
     78 H44        -6.0584    0.3487   10.7371 H         1 <1>         0.2099 
     79 H45        -8.1720   -1.3318    8.9719 H         1 <1>         0.2099 
     80 H46        -7.7418   -3.3286   12.6327 H         1 <1>         0.0266 
     81 H47        -7.2221   -1.7021   12.1927 H         1 <1>         0.0266 
     82 H48        -5.5452   -4.0539   13.2719 H         1 <1>         0.0230 
     83 C83        -5.6827   -2.9923   13.0399 C.3       1 <1>        -0.0649 
     84 H49        -5.8407   -2.4915   14.0047 H         1 <1>         0.0230 
     85 H50        -4.7452   -2.6019   12.6338 H         1 <1>         0.0230 
@<TRIPOS>BOND
     1    6    1 1    
     2    1    2 1    
     3    2    3 1    
     4    5   11 1    
     5    6    5 1    
     6    3    4 1    
     7    6    7 1    
     8    7    8 1    
     9    8    9 1    
    10   10    9 1    
    11   11   10 1    
    12   11   12 2    
    13    5    4 1    
    14    7   13 1    
    15   13   14 1    
    16   14   15 1    
    17   16   15 1    
    18    8   16 1    
    19   16   17 1    
    20   17   18 1    
    21   19   18 1    
    22   15   19 1    
    23    1   20 1    
    24    3   21 1    
    25    2   22 1    
    26    6   23 1    
    27   15   24 1    
    28   19   25 1    
    29   25   26 1    
    30   26   27 1    
    31   27   28 1    
    32   28   29 1    
    33   29   30 1    
    34   29   31 1    
    35   25   32 1    
    36   26   33 1    
    37   27   34 1    
    38   28   35 1    
    39    1   36 1    
    40    2   37 1    
    41    3   38 1    
    42    4   39 1    
    43    4   40 1    
    44    5   41 1    
    45    7   42 1    
    46    8   43 1    
    47    9   44 1    
    48    9   45 1    
    49   13   46 1    
    50   13   47 1    
    51   14   48 1    
    52   14   49 1    
    53   16   50 1    
    54   17   51 1    
    55   17   52 1    
    56   18   53 1    
    57   18   54 1    
    58   19   55 1    
    59   21   56 1    
    60   22   57 1    
    61   23   58 1    
    62   23   59 1    
    63   23   60 1    
    64   24   61 1    
    65   24   62 1    
    66   24   63 1    
    67   25   64 1    
    68   26   65 1    
    69   27   66 1    
    70   28   67 1    
    71   29   68 1    
    72   30   69 1    
    73   30   70 1    
    74   30   71 1    
    75   31   72 1    
    76   31   73 1    
    77   31   74 1    
    78   32   75 1    
    79   32   76 1    
    80   32   77 1    
    81   33   78 1    
    82   34   79 1    
    83   35   80 1    
    84   35   81 1    
    85   83   82 1    
    86   35   83 1    
    87   83   84 1    
    88   83   85 1    
@<TRIPOS>SUBSTRUCTURE
     1 ****        6 TEMP              0 ****  ****    0 ROOT 
@<TRIPOS>NORMAL
@<TRIPOS>FF_PBC
FORCE_FIELD_SETUP_FEATURE Force Field Setup information
v1.0  0 0.000000 0.000000 0.000000 0.000000 0.000000 0.000000 NONE 0 0 0 0 1 0 0 0 0 0 0 0 0
