#	Name:			PISM00819.3
#	Creating user name:	baoopengkun
#	Creation time:		Fri Nov 30 17:41:04 2018

#	Modifying user name:	baoopengkun
#	Modification time:	Fri Nov 30 17:43:39 2018

@<TRIPOS>MOLECULE
PISM00819.3
   40    42     1     2     0
SMALL
GAST_HUCK


@<TRIPOS>ATOM
      1 C1          6.2172    2.2194    0.4657 C.ar      1 <1>        -0.0631 
      2 C2          7.3967    2.1678   -0.2795 C.ar      1 <1>        -0.0635 
      3 C3          8.1732    3.3195   -0.4257 C.ar      1 <1>        -0.0575 
      4 C4          7.7643    4.5278    0.1523 C.ar      1 <1>        -0.0259 
      5 C5          6.5515    4.5980    0.8541 C.ar      1 <1>        -0.0175 
      6 C6          5.8092    3.4240    1.0447 C.ar      1 <1>        -0.0561 
      7 C7          8.5705    5.6659    0.0316 C.ar      1 <1>        -0.0640 
      8 C8          8.1661    6.8781    0.5944 C.ar      1 <1>        -0.0722 
      9 C9          6.9346    6.9622    1.2465 C.ar      1 <1>        -0.0660 
     10 C10         6.1149    5.8338    1.3554 C.ar      1 <1>        -0.0184 
     11 C11         4.7612    5.9977    2.0149 C.2       1 <1>         0.0876 
     12 C12         3.5672    5.6280    1.2271 C.2       1 <1>         0.2418 
     13 O13         3.7154    5.2923   -0.0637 O.3       1 <1>        -0.2861 
     14 C14         2.4876    4.9297   -0.7248 C.3       1 <1>         0.0639 
     15 O15         2.4636    5.6248    1.7495 O.2       1 <1>        -0.3759 
     16 C16         4.7072    6.4703    3.2677 C.2       1 <1>         0.1096 
     17 O17         3.5236    6.6421    3.8764 O.3       1 <1>        -0.2470 
     18 C18         3.6088    7.1030    5.2376 C.3       1 <1>         0.2466 
     19 C19         4.1995    6.0357    6.1326 C.2       1 <1>         0.0006 
     20 C20         3.2980    5.6150    7.0178 C.2       1 <1>         0.0294 
     21 C21         2.1202    6.4166    6.7123 C.2       1 <1>         0.2497 
     22 O22         2.2619    7.2843    5.7186 O.3       1 <1>        -0.2291 
     23 C23         3.4393    4.5626    8.0833 C.3       1 <1>        -0.0323 
     24 O24         1.0766    6.3061    7.3321 O.2       1 <1>        -0.3691 
     25 H1          5.6186    1.3228    0.5957 H         1 <1>         0.0598 
     26 H2          7.7094    1.2359   -0.7410 H         1 <1>         0.0613 
     27 H3          9.0973    3.2639   -0.9930 H         1 <1>         0.0605 
     28 H4          4.9078    3.4204    1.6471 H         1 <1>         0.0623 
     29 H5          9.5174    5.6195   -0.4978 H         1 <1>         0.0535 
     30 H6          8.8053    7.7531    0.5215 H         1 <1>         0.0590 
     31 H7          6.6155    7.9140    1.6597 H         1 <1>         0.0523 
     32 H8          2.7291    4.6738   -1.7668 H         1 <1>         0.0574 
     33 H9          1.7726    5.7680   -0.7288 H         1 <1>         0.0574 
     34 H10         2.0229    4.0510   -0.2494 H         1 <1>         0.0574 
     35 H11         5.6568    6.7021    3.7552 H         1 <1>         0.1357 
     36 H12         4.1414    8.0652    5.3263 H         1 <1>         0.1229 
     37 H13         5.2175    5.6545    6.0665 H         1 <1>         0.0707 
     38 H14         4.3804    4.0044    7.9659 H         1 <1>         0.0347 
     39 H15         2.5961    3.8589    8.0159 H         1 <1>         0.0347 
     40 H16         3.4268    5.0425    9.0730 H         1 <1>         0.0347 
@<TRIPOS>BOND
     1    2    1 ar   
     2    2    3 ar   
     3    3    4 ar   
     4    4    5 ar   
     5    5    6 ar   
     6    1    6 ar   
     7    4    7 ar   
     8    7    8 ar   
     9    8    9 ar   
    10    9   10 ar   
    11    5   10 ar   
    12   10   11 1    
    13   11   12 1    
    14   12   13 1    
    15   13   14 1    
    16   12   15 2    
    17   11   16 2    
    18   16   17 1    
    19   17   18 1    
    20   18   19 1    
    21   19   20 2    
    22   20   21 1    
    23   21   22 1    
    24   18   22 1    
    25   20   23 1    
    26   21   24 2    
    27    1   25 1    
    28    2   26 1    
    29    3   27 1    
    30    6   28 1    
    31    7   29 1    
    32    8   30 1    
    33    9   31 1    
    34   14   32 1    
    35   14   33 1    
    36   14   34 1    
    37   16   35 1    
    38   18   36 1    
    39   19   37 1    
    40   23   38 1    
    41   23   39 1    
    42   23   40 1    
@<TRIPOS>SUBSTRUCTURE
     1 ****        2 TEMP              0 ****  ****    0 ROOT 
@<TRIPOS>NORMAL
@<TRIPOS>FF_PBC
FORCE_FIELD_SETUP_FEATURE Force Field Setup information
v1.0  0 0.000000 0.000000 0.000000 0.000000 0.000000 0.000000 NONE 0 0 0 0 1 0 0 0 0 0 0 0 0
@<TRIPOS>RENDERING_ATTRS
ANTIALIASED_LINES 
*
