#	Name:			PISM00897.1
#	Creating user name:	baoopengkun
#	Creation time:		Fri Dec 14 10:03:55 2018

#	Modifying user name:	baoopengkun
#	Modification time:	Fri Dec 14 10:13:29 2018

@<TRIPOS>MOLECULE
PISM00897.1
   31    32     1     1     0
SMALL
GAST_HUCK


@<TRIPOS>ATOM
      1 C1         16.8769   14.2694   -0.4438 C.ar      1 <1>        -0.0398 
      2 C2         17.1276   15.6182   -0.7129 C.ar      1 <1>        -0.0722 
      3 C3         18.0478   15.9741   -1.7029 C.ar      1 <1>        -0.0740 
      4 C4         18.7125   14.9799   -2.4262 C.ar      1 <1>        -0.0722 
      5 C5         18.4477   13.6319   -2.1668 C.ar      1 <1>        -0.0398 
      6 C6         17.5277   13.2706   -1.1769 C.ar      1 <1>         0.0661 
      7 N7         17.2767   11.9605   -0.9314 N.pl3     1 <1>        -0.2037 
      8 C8         16.0542   11.4990   -0.9861 C.2       1 <1>         0.3530 
      9 O9         15.8252   10.3217   -0.7585 O.2       1 <1>        -0.3603 
     10 O10        15.0598   12.3387   -1.3124 O.3       1 <1>        -0.2086 
     11 C11        13.7460   11.7557   -1.2838 C.3       1 <1>         0.2428 
     12 C12        13.5843   10.5750   -2.2124 C.2       1 <1>        -0.0021 
     13 C13        13.1489    9.5165   -1.5304 C.2       1 <1>         0.0291 
     14 C14        13.0303   10.0078   -0.1609 C.2       1 <1>         0.2494 
     15 O15        13.3904   11.2725    0.0274 O.3       1 <1>        -0.2314 
     16 C16        12.8439    8.1327   -2.0338 C.3       1 <1>        -0.0323 
     17 O17        12.6249    9.3085    0.7518 O.2       1 <1>        -0.3691 
     18 C18        18.3823   11.0598   -0.5981 C.3       1 <1>         0.0400 
     19 H1         16.1780   13.9995    0.3416 H         1 <1>         0.0528 
     20 H2         16.6088   16.3894   -0.1517 H         1 <1>         0.0586 
     21 H3         18.2463   17.0216   -1.9095 H         1 <1>         0.0514 
     22 H4         19.4333   15.2547   -3.1904 H         1 <1>         0.0586 
     23 H5         18.9560   12.8638   -2.7405 H         1 <1>         0.0528 
     24 H6         13.0243   12.5365   -1.5719 H         1 <1>         0.1196 
     25 H7         13.7962   10.5953   -3.2804 H         1 <1>         0.0705 
     26 H8         12.9048    8.0881   -3.1316 H         1 <1>         0.0347 
     27 H9         11.8303    7.8435   -1.7187 H         1 <1>         0.0347 
     28 H10        13.5687    7.4250   -1.6047 H         1 <1>         0.0347 
     29 H11        18.5333   10.3456   -1.4224 H         1 <1>         0.0522 
     30 H12        18.1527   10.4979    0.3212 H         1 <1>         0.0522 
     31 H13        19.3250   11.6041   -0.4295 H         1 <1>         0.0522 
@<TRIPOS>BOND
     1    1    2 ar   
     2    2    3 ar   
     3    4    3 ar   
     4    5    4 ar   
     5    6    5 ar   
     6    6    1 ar   
     7    7    8 1    
     8    6    7 1    
     9    8    9 2    
    10    8   10 1    
    11   10   11 1    
    12   11   12 1    
    13   12   13 2    
    14   14   13 1    
    15   15   14 1    
    16   11   15 1    
    17   13   16 1    
    18   14   17 2    
    19    7   18 1    
    20    1   19 1    
    21    2   20 1    
    22    3   21 1    
    23    4   22 1    
    24    5   23 1    
    25   11   24 1    
    26   12   25 1    
    27   16   26 1    
    28   16   27 1    
    29   16   28 1    
    30   18   29 1    
    31   18   30 1    
    32   18   31 1    
@<TRIPOS>SUBSTRUCTURE
     1 ****        2 TEMP              0 ****  ****    0 ROOT 
@<TRIPOS>NORMAL
@<TRIPOS>FF_PBC
FORCE_FIELD_SETUP_FEATURE Force Field Setup information
v1.0  0 0.000000 0.000000 0.000000 0.000000 0.000000 0.000000 NONE 0 0 0 0 1 0 0 0 0 0 0 0 0
