#	Name:			PISM00107
#	Creating user name:	baoopengkun
#	Creation time:		Sun Dec 16 14:53:32 2018

#	Modifying user name:	baoopengkun
#	Modification time:	Sun Dec 16 14:54:53 2018

@<TRIPOS>MOLECULE
PISM00107
   26    27     1     1     0
SMALL
GAST_HUCK


@<TRIPOS>ATOM
      1 C1         -7.9391   29.0856   -5.5726 C.ar      1 <1>        -0.0516 
      2 C2         -9.1398   28.4175   -5.3136 C.ar      1 <1>        -0.0479 
      3 C3         -9.1695   27.0229   -5.2425 C.ar      1 <1>         0.0533 
      4 C4         -7.9904   26.2977   -5.4325 C.ar      1 <1>         0.0538 
      5 C5         -6.7930   26.9698   -5.6930 C.ar      1 <1>        -0.0378 
      6 C6         -6.7514   28.3678   -5.7671 C.ar      1 <1>         0.0165 
      7 Cl7       -10.6804   26.1974   -4.9164 Cl        1 <1>        -0.0705 
      8 Cl8        -8.0041   24.5473   -5.3461 Cl        1 <1>        -0.0704 
      9 C9         -5.4213   29.0384   -6.0537 C.2       1 <1>         0.1300 
     10 C10        -5.2444   30.3562   -6.1867 C.2       1 <1>        -0.0403 
     11 C11        -3.8119   30.4769   -6.4472 C.2       1 <1>        -0.0411 
     12 C12        -3.3822   29.2126   -6.4252 C.2       1 <1>         0.1257 
     13 O13        -4.3208   28.2911   -6.1905 O.3       1 <1>        -0.2492 
     14 C14        -1.9863   28.7781   -6.6356 C.2       1 <1>        -0.0131 
     15 C15        -0.9301   29.5729   -6.8544 C.2       1 <1>         0.0140 
     16 C16         0.4389   29.0629   -7.0561 C.2       1 <1>         0.2374 
     17 O17         0.6537   27.8612   -7.0326 O.2       1 <1>        -0.3702 
     18 O18         1.4384   29.9208   -7.2639 O.3       1 <1>        -0.2982 
     19 H1         -7.9538   30.1674   -5.6171 H         1 <1>         0.0617 
     20 H2        -10.0554   28.9818   -5.1663 H         1 <1>         0.0620 
     21 H3         -5.8896   26.3869   -5.8382 H         1 <1>         0.0623 
     22 H4         -5.9437   31.1875   -6.1288 H         1 <1>         0.0434 
     23 H5         -3.2691   31.4054   -6.6142 H         1 <1>         0.0476 
     24 H6         -1.8296   27.6997   -6.6038 H         1 <1>         0.0738 
     25 H7         -1.0363   30.6548   -6.8933 H         1 <1>         0.0578 
     26 H8          2.2675   29.4692   -7.3786 H         1 <1>         0.2509 
@<TRIPOS>BOND
     1    2    1 ar   
     2    2    3 ar   
     3    3    4 ar   
     4    4    5 ar   
     5    5    6 ar   
     6    1    6 ar   
     7    3    7 1    
     8    4    8 1    
     9    6    9 1    
    10    9   10 2    
    11   10   11 1    
    12   11   12 2    
    13   12   13 1    
    14    9   13 1    
    15   12   14 1    
    16   14   15 2    
    17   15   16 1    
    18   16   17 2    
    19   16   18 1    
    20    1   19 1    
    21    2   20 1    
    22    5   21 1    
    23   10   22 1    
    24   11   23 1    
    25   14   24 1    
    26   15   25 1    
    27   18   26 1    
@<TRIPOS>SUBSTRUCTURE
     1 ****        2 TEMP              0 ****  ****    0 ROOT 
@<TRIPOS>NORMAL
@<TRIPOS>FF_PBC
FORCE_FIELD_SETUP_FEATURE Force Field Setup information
v1.0  0 0.000000 0.000000 0.000000 0.000000 0.000000 0.000000 NONE 0 0 0 0 1 0 0 0 0 0 0 0 0
