#	Name:			PISM00920.1
#	Creating user name:	baoopengkun
#	Creation time:		Fri Dec 14 10:31:16 2018

#	Modifying user name:	baoopengkun
#	Modification time:	Fri Dec 14 11:02:53 2018

@<TRIPOS>MOLECULE
PISM00920.1
   40    42     1     1     0
SMALL
GAST_HUCK


@<TRIPOS>ATOM
      1 C1         30.5890    9.7735  -16.4004 C.ar      1 <1>        -0.0145 
      2 C2         31.3227    8.6180  -16.7058 C.ar      1 <1>         0.0720 
      3 C3         30.9231    7.3722  -16.1895 C.ar      1 <1>        -0.0299 
      4 C4         29.8276    7.2536  -15.3241 C.ar      1 <1>        -0.0474 
      5 C5         29.1195    8.4159  -15.0243 C.ar      1 <1>         0.0608 
      6 C6         29.4888    9.6429  -15.5546 C.ar      1 <1>         0.0637 
      7 C7         28.4894   10.6358  -15.0157 C.2       1 <1>         0.2418 
      8 N8         27.6075   10.0023  -14.2181 N.am      1 <1>        -0.1418 
      9 C9         27.9092    8.6910  -14.1668 C.2       1 <1>         0.2355 
     10 O10        28.4998   11.8250  -15.2834 O.2       1 <1>        -0.3668 
     11 O11        27.3075    7.8406  -13.5342 O.2       1 <1>        -0.3726 
     12 C12        26.5218   10.6423  -13.4974 C.3       1 <1>         0.2214 
     13 O13        27.0822   11.4705  -12.4592 O.3       1 <1>        -0.2348 
     14 C14        26.7363   12.7121  -12.7778 C.2       1 <1>         0.2491 
     15 C15        25.9273   12.8482  -13.9844 C.2       1 <1>         0.0288 
     16 C16        25.7885   11.5946  -14.4113 C.2       1 <1>        -0.0059 
     17 C17        25.3777   14.1040  -14.6032 C.3       1 <1>        -0.0323 
     18 O18        27.0678   13.6675  -12.0969 O.2       1 <1>        -0.3691 
     19 N19        32.4089    8.7248  -17.5111 N.pl3     1 <1>        -0.2358 
     20 C20        33.5391    8.1287  -17.2330 C.2       1 <1>         0.2019 
     21 O21        33.6992    7.4518  -16.2310 O.2       1 <1>        -0.3789 
     22 C22        34.7001    8.2960  -18.1871 C.3       1 <1>         0.0427 
     23 C23        35.9572    7.4892  -17.7614 C.3       1 <1>        -0.0382 
     24 C24        37.1222    7.6827  -18.7669 C.3       1 <1>        -0.0631 
     25 H1         30.8628   10.7438  -16.8001 H         1 <1>         0.0597 
     26 H2         31.4621    6.4725  -16.4674 H         1 <1>         0.0574 
     27 H3         29.5334    6.2981  -14.9019 H         1 <1>         0.0651 
     28 H4         25.8246    9.9100  -13.0568 H         1 <1>         0.1152 
     29 H5         25.2339   11.2957  -15.2997 H         1 <1>         0.0702 
     30 H6         25.7753   14.2163  -15.6230 H         1 <1>         0.0347 
     31 H7         25.6679   14.9830  -14.0083 H         1 <1>         0.0347 
     32 H8         24.2799   14.0483  -14.6468 H         1 <1>         0.0347 
     33 H9         32.3413    9.3147  -18.3540 H         1 <1>         0.2126 
     34 H10        34.9550    9.3662  -18.2355 H         1 <1>         0.0511 
     35 H11        34.3790    7.9638  -19.1867 H         1 <1>         0.0511 
     36 H12        35.7012    6.4177  -17.7050 H         1 <1>         0.0288 
     37 H13        36.2836    7.8195  -16.7607 H         1 <1>         0.0288 
     38 H14        37.4083    8.7445  -18.8249 H         1 <1>         0.0231 
     39 H15        36.8254    7.3408  -19.7708 H         1 <1>         0.0231 
     40 H16        38.0004    7.1009  -18.4449 H         1 <1>         0.0231 
@<TRIPOS>BOND
     1    2    1 ar   
     2    2    3 ar   
     3    3    4 ar   
     4    4    5 ar   
     5    6    5 ar   
     6    1    6 ar   
     7    6    7 1    
     8    7    8 am   
     9    9    8 am   
    10    5    9 1    
    11    7   10 2    
    12    9   11 2    
    13    8   12 1    
    14   12   13 1    
    15   13   14 1    
    16   15   14 1    
    17   16   15 2    
    18   12   16 1    
    19   15   17 1    
    20   14   18 2    
    21    2   19 1    
    22   19   20 1    
    23   20   21 2    
    24   20   22 1    
    25   22   23 1    
    26   23   24 1    
    27    1   25 1    
    28    3   26 1    
    29    4   27 1    
    30   12   28 1    
    31   16   29 1    
    32   17   30 1    
    33   17   31 1    
    34   17   32 1    
    35   19   33 1    
    36   22   34 1    
    37   22   35 1    
    38   23   36 1    
    39   23   37 1    
    40   24   38 1    
    41   24   39 1    
    42   24   40 1    
@<TRIPOS>SUBSTRUCTURE
     1 ****        2 TEMP              0 ****  ****    0 ROOT 
@<TRIPOS>NORMAL
@<TRIPOS>FF_PBC
FORCE_FIELD_SETUP_FEATURE Force Field Setup information
v1.0  0 0.000000 0.000000 0.000000 0.000000 0.000000 0.000000 NONE 0 0 0 0 1 0 0 0 0 0 0 0 0
