#	Name:			PISM00905.1
#	Creating user name:	baoopengkun
#	Creation time:		Fri Dec 14 10:31:16 2018

#	Modifying user name:	baoopengkun
#	Modification time:	Fri Dec 14 10:32:47 2018

@<TRIPOS>MOLECULE
PISM00905.1
   27    29     1     1     0
SMALL
NO_CHARGES


@<TRIPOS>ATOM
      1 C1         25.0783   13.1240  -13.7615 C.ar      1 <1>         0.0000 
      2 C2         25.3461   14.4259  -14.2041 C.ar      1 <1>         0.0000 
      3 C3         24.5910   15.5166  -13.7457 C.ar      1 <1>         0.0000 
      4 C4         23.5447   15.3382  -12.8314 C.ar      1 <1>         0.0000 
      5 C5         23.2869   14.0378  -12.3995 C.ar      1 <1>         0.0000 
      6 C6         24.0343   12.9593  -12.8521 C.ar      1 <1>         0.0000 
      7 C7         23.4603   11.7452  -12.1647 C.2       1 <1>         0.0000 
      8 N8         22.4315   12.1214  -11.3740 N.am      1 <1>         0.0000 
      9 C9         22.2702   13.4610  -11.4457 C.2       1 <1>         0.0000 
     10 O10        23.8883   10.6135  -12.3213 O.2       1 <1>         0.0000 
     11 O11        21.4464   14.1334  -10.8474 O.2       1 <1>         0.0000 
     12 C12        21.6534   11.2232  -10.5342 C.3       1 <1>         0.0000 
     13 O13        21.4202    9.9700  -11.2131 O.3       1 <1>         0.0000 
     14 C14        22.0383    9.0515  -10.4785 C.2       1 <1>         0.0000 
     15 C15        22.7012    9.5524   -9.2797 C.2       1 <1>         0.0000 
     16 C16        22.4655   10.8627   -9.3143 C.2       1 <1>         0.0000 
     17 C17        23.4790    8.7713   -8.2567 C.3       1 <1>         0.0000 
     18 O18        22.0455    7.8721  -10.7901 O.2       1 <1>         0.0000 
     19 H1         25.6563   12.2742  -14.1086 H         1 <1>         0.0000 
     20 H2         26.1510   14.5922  -14.9134 H         1 <1>         0.0000 
     21 H3         24.8202   16.5151  -14.1045 H         1 <1>         0.0000 
     22 H4         22.9552   16.1742  -12.4704 H         1 <1>         0.0000 
     23 H5         20.6870   11.6637  -10.2426 H         1 <1>         0.0000 
     24 H6         22.8114   11.5801   -8.5709 H         1 <1>         0.0000 
     25 H7         23.9448    7.8928   -8.7274 H         1 <1>         0.0000 
     26 H8         22.7982    8.4345   -7.4611 H         1 <1>         0.0000 
     27 H9         24.2681    9.3980   -7.8147 H         1 <1>         0.0000 
@<TRIPOS>BOND
     1    2    1 ar   
     2    2    3 ar   
     3    3    4 ar   
     4    4    5 ar   
     5    5    6 ar   
     6    1    6 ar   
     7    6    7 1    
     8    7    8 am   
     9    8    9 am   
    10    5    9 1    
    11    7   10 2    
    12    9   11 2    
    13    8   12 1    
    14   12   13 1    
    15   13   14 1    
    16   14   15 1    
    17   15   16 2    
    18   12   16 1    
    19   15   17 1    
    20   14   18 2    
    21    1   19 1    
    22    2   20 1    
    23    3   21 1    
    24    4   22 1    
    25   12   23 1    
    26   16   24 1    
    27   17   25 1    
    28   17   26 1    
    29   17   27 1    
@<TRIPOS>SUBSTRUCTURE
     1 ****        2 TEMP              0 ****  ****    0 ROOT 
@<TRIPOS>NORMAL
@<TRIPOS>FF_PBC
FORCE_FIELD_SETUP_FEATURE Force Field Setup information
v1.0  0 0.000000 0.000000 0.000000 0.000000 0.000000 0.000000 NONE 0 0 0 0 0 0 0 0 0 0 0 0 0
