#	Name:			PISM00099
#	Creating user name:	baoopengkun
#	Creation time:		Sun Dec 16 14:24:10 2018

#	Modifying user name:	baoopengkun
#	Modification time:	Sun Dec 16 14:25:37 2018

@<TRIPOS>MOLECULE
PISM00099
   27    28     1     2     0
SMALL
GAST_HUCK


@<TRIPOS>ATOM
      1 C1          2.6677   14.5994   -5.7387 C.ar      1 <1>        -0.0471 
      2 C2          1.2973   14.4017   -5.5526 C.ar      1 <1>         0.0493 
      3 C3          0.8338   13.3630   -4.7380 C.ar      1 <1>         0.1231 
      4 C4          1.7527   12.4956   -4.1268 C.ar      1 <1>         0.0925 
      5 C5          3.1237   12.7588   -4.2399 C.ar      1 <1>        -0.0372 
      6 C6          3.5832   13.7798   -5.0755 C.ar      1 <1>         0.0098 
      7 O7         -0.5474   13.2113   -4.5559 O.3       1 <1>        -0.3235 
      8 Br8         0.0882   15.5260   -6.3939 Br        1 <1>        -0.0559 
      9 Br9         5.4026   14.0472   -5.3008 Br        1 <1>        -0.0578 
     10 C10         1.2265   11.3026   -3.3545 C.2       1 <1>         0.2452 
     11 O11         0.1187   11.4153   -2.8523 O.2       1 <1>        -0.3757 
     12 N12         1.9214   10.1529   -3.2337 N.am      1 <1>        -0.1722 
     13 N13         3.1857    9.9348   -3.9006 N.2       1 <1>        -0.1922 
     14 C14         3.8537    8.8575   -3.7886 C.2       1 <1>         0.0559 
     15 C15         5.1406    8.7383   -4.4964 C.2       1 <1>         0.1191 
     16 O16         5.6021    9.7576   -5.2314 O.3       1 <1>        -0.2658 
     17 C17         6.7547    9.2535   -5.6826 C.2       1 <1>         0.0775 
     18 C18         7.0493    8.0119   -5.2932 C.2       1 <1>        -0.0650 
     19 C19         5.9094    7.6479   -4.4555 C.2       1 <1>        -0.0599 
     20 H1          3.0203   15.3892   -6.3939 H         1 <1>         0.0678 
     21 H2          3.8494   12.1864   -3.6747 H         1 <1>         0.0692 
     22 H3         -0.7854   12.6429   -3.8265 H         1 <1>         0.2534 
     23 H4          1.4913    9.4339   -2.6846 H         1 <1>         0.2513 
     24 H5          3.4973    8.0261   -3.1813 H         1 <1>         0.0719 
     25 H6          7.4112    9.8321   -6.3323 H         1 <1>         0.0972 
     26 H7          7.9247    7.4107   -5.5368 H         1 <1>         0.0349 
     27 H8          5.7382    6.7098   -3.9288 H         1 <1>         0.0345 
@<TRIPOS>BOND
     1    2    1 ar   
     2    2    3 ar   
     3    3    4 ar   
     4    4    5 ar   
     5    5    6 ar   
     6    1    6 ar   
     7    3    7 1    
     8    2    8 1    
     9    6    9 1    
    10    4   10 1    
    11   10   11 2    
    12   10   12 am   
    13   12   13 1    
    14   13   14 2    
    15   14   15 1    
    16   15   16 1    
    17   16   17 1    
    18   17   18 2    
    19   18   19 1    
    20   15   19 2    
    21    1   20 1    
    22    5   21 1    
    23    7   22 1    
    24   12   23 1    
    25   14   24 1    
    26   17   25 1    
    27   18   26 1    
    28   19   27 1    
@<TRIPOS>SUBSTRUCTURE
     1 ****        2 TEMP              0 ****  ****    0 ROOT 
@<TRIPOS>NORMAL
@<TRIPOS>FF_PBC
FORCE_FIELD_SETUP_FEATURE Force Field Setup information
v1.0  0 0.000000 0.000000 0.000000 0.000000 0.000000 0.000000 NONE 0 0 0 0 1 0 0 0 0 0 0 0 0
@<TRIPOS>RENDERING_ATTRS
ANTIALIASED_LINES 
*
