#	Name:			PISM00319
#	Creating user name:	malab
#	Creation time:		Sat Apr 06 18:23:23 2019

#	Modifying user name:	malab
#	Modification time:	Sat Apr 06 18:23:37 2019

@<TRIPOS>MOLECULE
PISM00319
   57    58     1     1     0
SMALL
GAST_HUCK


@<TRIPOS>ATOM
      1 O1          5.3701   17.4509   -9.6666 O.3       1 AZIDO      -0.3068 
      2 C2          4.2110   16.8247  -10.1362 C.ar      1 AZIDO       0.1607 
      3 C3          3.5543   15.8486   -9.3718 C.ar      1 AZIDO       0.0657 
      4 C4          2.4102   15.2265   -9.8711 C.ar      1 AZIDO      -0.0219 
      5 C5          1.8784   15.5574  -11.1305 C.ar      1 AZIDO       0.0713 
      6 C6          2.5085   16.5954  -11.8429 C.ar      1 AZIDO       0.0010 
      7 C7          3.7015   17.1679  -11.3893 C.ar      1 AZIDO       0.1500 
      8 I8          4.2588   15.3036   -7.5204 I         1 AZIDO      -0.0507 
      9 ****        4.3803   18.0609  -12.1429 N.2       1 AZIDO      -0.1177 
     10 N2          4.1799   18.1642  -13.3228 N.1       1 AZIDO      -0.2486 
     11 ****        3.9921   18.2853  -14.5032 N.2       1 AZIDO       0.0157 
     12 C12         0.6803   14.7843  -11.6340 C.2       1 AZIDO       0.2563 
     13 O13         0.1322   14.0255  -10.8447 O.2       1 AZIDO      -0.3604 
     14 N14         0.2164   14.8759  -12.8540 N.pl3     1 AZIDO      -0.1520 
     15 N15        -0.8408   14.1900  -13.3335 N.2       1 AZIDO      -0.1364 
     16 C16        -2.0564   14.3802  -12.9934 C.2       1 AZIDO       0.0968 
     17 C17        -2.5962   15.2225  -11.8710 C.3       1 AZIDO      -0.0038 
     18 C18        -3.2829   16.4390  -12.5463 C.3       1 AZIDO      -0.0592 
     19 C19        -2.1144   17.3411  -13.0359 C.3       1 AZIDO      -0.0740 
     20 C20        -4.0103   17.2936  -11.4550 C.3       1 AZIDO      -0.0740 
     21 C21        -4.2995   15.9578  -13.6763 C.3       1 AZIDO       0.0098 
     22 C22        -4.1263   14.5177  -14.1775 C.2       1 AZIDO      -0.0884 
     23 C23        -3.0627   13.7717  -13.8535 C.2       1 AZIDO      -0.0135 
     24 C24        -5.2087   13.9292  -15.0647 C.3       1 AZIDO      -0.0428 
     25 C25        -4.4157   16.9116  -14.8703 C.2       1 AZIDO      -0.1113 
     26 C26        -3.4476   17.2793  -15.7290 C.2       1 AZIDO      -0.0326 
     27 C27        -3.6356   18.2199  -16.8562 C.2       1 AZIDO       0.0083 
     28 C28        -4.6075   17.7927  -17.9295 C.3       1 AZIDO      -0.0163 
     29 C29        -2.9831   19.3897  -16.9874 C.2       1 AZIDO       0.0506 
     30 C30        -1.9655   20.0094  -16.1128 C.2       1 AZIDO       0.2626 
     31 O31        -1.5077   19.4124  -15.1551 O.2       1 AZIDO      -0.3540 
     32 O32        -1.5236   21.2407  -16.3838 O.3       1 AZIDO      -0.2939 
     33 O33        -5.5764   15.9484  -13.0002 O.3       1 AZIDO      -0.4814 
     34 H1          5.2885   17.7667   -8.7743 H         1 AZIDO       0.2632 
     35 H2          1.9265   14.4675   -9.2673 H         1 AZIDO       0.0799 
     36 H3          2.0871   16.9903  -12.7578 H         1 AZIDO       0.0781 
     37 H5          0.6998   15.4709  -13.5326 H         1 AZIDO       0.2504 
     38 H6         -1.8324   15.5283  -11.1433 H         1 AZIDO       0.0436 
     39 H7         -3.3518   14.6303  -11.3309 H         1 AZIDO       0.0436 
     40 H8         -1.4629   17.6703  -12.2125 H         1 AZIDO       0.0219 
     41 H9         -2.5574   18.2413  -13.4720 H         1 AZIDO       0.0219 
     42 H10        -1.4527   16.8321  -13.7448 H         1 AZIDO       0.0219 
     43 H11        -4.7249   16.6949  -10.8711 H         1 AZIDO       0.0219 
     44 H12        -4.5598   18.1163  -11.9399 H         1 AZIDO       0.0219 
     45 H13        -3.3020   17.7354  -10.7372 H         1 AZIDO       0.0219 
     46 H14        -2.9079   12.7528  -14.2069 H         1 AZIDO       0.0958 
     47 H15        -4.8770   13.0050  -15.5621 H         1 AZIDO       0.0402 
     48 H16        -5.5039   14.6402  -15.8494 H         1 AZIDO       0.0402 
     49 H17        -6.0934   13.6675  -14.4650 H         1 AZIDO       0.0402 
     50 H18        -5.3959   17.3477  -15.0657 H         1 AZIDO       0.0471 
     51 H19        -2.4357   16.8986  -15.6805 H         1 AZIDO       0.0968 
     52 H20        -4.2247   18.0489  -18.9300 H         1 AZIDO       0.0428 
     53 H21        -5.5793   18.2837  -17.7768 H         1 AZIDO       0.0428 
     54 H22        -4.7497   16.7015  -17.8974 H         1 AZIDO       0.0428 
     55 H23        -3.2014   20.0089  -17.8567 H         1 AZIDO       0.0849 
     56 H24        -0.8709   21.5338  -15.7553 H         1 AZIDO       0.2515 
     57 H25        -6.3447   15.7818  -13.5331 H         1 AZIDO       0.1757 
@<TRIPOS>BOND
     1    2    1 1    
     2    2    3 ar   
     3    3    4 ar   
     4    5    4 ar   
     5    6    5 ar   
     6    7    6 ar   
     7    7    2 ar   
     8    3    8 1    
     9    9   10 2    
    10   10   11 2    
    11    9    7 1    
    12    5   12 1    
    13   12   13 2    
    14   12   14 1    
    15   14   15 1    
    16   15   16 2    
    17   16   17 1    
    18   17   18 1    
    19   18   19 1    
    20   18   20 1    
    21   18   21 1    
    22   21   22 1    
    23   22   23 2    
    24   16   23 1    
    25   22   24 1    
    26   21   25 1    
    27   25   26 2    
    28   26   27 1    
    29   27   28 1    
    30   27   29 2    
    31   29   30 1    
    32   30   31 2    
    33   30   32 1    
    34   21   33 1    
    35    1   34 1    
    36    4   35 1    
    37    6   36 1    
    38   14   37 1    
    39   17   38 1    
    40   17   39 1    
    41   19   40 1    
    42   19   41 1    
    43   19   42 1    
    44   20   43 1    
    45   20   44 1    
    46   20   45 1    
    47   23   46 1    
    48   24   47 1    
    49   24   48 1    
    50   24   49 1    
    51   25   50 1    
    52   26   51 1    
    53   28   52 1    
    54   28   53 1    
    55   28   54 1    
    56   29   55 1    
    57   32   56 1    
    58   33   57 1    
@<TRIPOS>SUBSTRUCTURE
     1 AZIDO       9 PERM              0 ****  ****    0 ROOT 
@<TRIPOS>NORMAL
@<TRIPOS>FF_PBC
FORCE_FIELD_SETUP_FEATURE Force Field Setup information
v1.0  0 0.000000 0.000000 0.000000 0.000000 0.000000 0.000000 NONE 0 0 0 0 1 0 0 0 0 0 0 0 0
