#	Name:			PISM00311
#	Creating user name:	baoopengkun
#	Creation time:		Sun Dec 16 04:09:36 2018

#	Modifying user name:	baoopengkun
#	Modification time:	Sun Dec 16 04:12:26 2018

@<TRIPOS>MOLECULE
PISM00311
   35    37     1     1     0
SMALL
GAST_HUCK


@<TRIPOS>ATOM
      1 S1         -4.5657   13.1520   44.1131 S.3       1 <1>        -0.0417 
      2 C2         -4.3346   12.4135   42.5095 C.2       1 <1>        -0.0188 
      3 C3         -5.4396   11.8457   42.0200 C.2       1 <1>        -0.0922 
      4 C4         -6.5840   11.9702   42.9323 C.2       1 <1>        -0.0788 
      5 C5         -6.2668   12.6258   44.0525 C.2       1 <1>         0.0308 
      6 C6         -7.2206   12.9144   45.1794 C.3       1 <1>         0.0800 
      7 C7         -6.6749   12.2983   46.4339 C.2       1 <1>         0.2040 
      8 N8         -6.8940   11.1171   46.8341 N.2       1 <1>        -0.2730 
      9 N9         -6.1572   11.0216   48.0379 N.2       1 <1>        -0.2583 
     10 C10        -5.5945   12.1507   48.1990 C.2       1 <1>         0.3066 
     11 O11        -5.8739   13.0149   47.2175 O.3       1 <1>        -0.1658 
     12 N12        -4.8320   12.4168   49.2215 N.pl3     1 <1>        -0.1854 
     13 C13        -4.2498   13.5744   49.3827 C.2       1 <1>         0.2339 
     14 O14        -4.3511   14.4797   48.5717 O.2       1 <1>        -0.3686 
     15 C15        -3.3882   13.8614   50.5954 C.ar      1 <1>         0.0685 
     16 C16        -2.1280   14.4349   50.3920 C.ar      1 <1>        -0.0469 
     17 C17        -1.2770   14.6825   51.4727 C.ar      1 <1>        -0.0628 
     18 C18        -1.6917   14.3698   52.7694 C.ar      1 <1>        -0.0632 
     19 C19        -2.9637   13.8316   52.9812 C.ar      1 <1>        -0.0436 
     20 C20        -3.8167   13.5842   51.9005 C.ar      1 <1>         0.0367 
     21 S21        -5.4482   12.9409   52.1999 S.3       1 <1>        -0.0992 
     22 C22        -5.0184   11.3300   52.9338 C.3       1 <1>        -0.0034 
     23 H1         -3.3786   12.4295   41.9870 H         1 <1>         0.0604 
     24 H2         -5.4929   11.3449   41.0534 H         1 <1>         0.0373 
     25 H3         -7.5711   11.5680   42.7057 H         1 <1>         0.0286 
     26 H4         -8.2198   12.4978   44.9838 H         1 <1>         0.0698 
     27 H5         -7.3101   14.0028   45.3092 H         1 <1>         0.0698 
     28 H6         -4.6834   11.6724   49.9113 H         1 <1>         0.2212 
     29 H7         -1.8048   14.6878   49.3867 H         1 <1>         0.0653 
     30 H8         -0.2958   15.1165   51.3049 H         1 <1>         0.0572 
     31 H9         -1.0282   14.5477   53.6107 H         1 <1>         0.0636 
     32 H10        -3.2894   13.6125   53.9926 H         1 <1>         0.0577 
     33 H11        -5.9284   10.7156   52.9975 H         1 <1>         0.0368 
     34 H12        -4.6116   11.4711   53.9455 H         1 <1>         0.0368 
     35 H13        -4.2743   10.8108   52.3120 H         1 <1>         0.0368 
@<TRIPOS>BOND
     1    2    1 1    
     2    2    3 2    
     3    3    4 1    
     4    4    5 2    
     5    1    5 1    
     6    5    6 1    
     7    6    7 1    
     8    7    8 2    
     9    8    9 1    
    10    9   10 2    
    11   10   11 1    
    12    7   11 1    
    13   10   12 1    
    14   12   13 1    
    15   13   14 2    
    16   13   15 1    
    17   15   16 ar   
    18   16   17 ar   
    19   17   18 ar   
    20   18   19 ar   
    21   19   20 ar   
    22   15   20 ar   
    23   20   21 1    
    24   21   22 1    
    25    2   23 1    
    26    3   24 1    
    27    4   25 1    
    28    6   26 1    
    29    6   27 1    
    30   12   28 1    
    31   16   29 1    
    32   17   30 1    
    33   18   31 1    
    34   19   32 1    
    35   22   33 1    
    36   22   34 1    
    37   22   35 1    
@<TRIPOS>SUBSTRUCTURE
     1 ****        2 TEMP              0 ****  ****    0 ROOT 
@<TRIPOS>NORMAL
@<TRIPOS>FF_PBC
FORCE_FIELD_SETUP_FEATURE Force Field Setup information
v1.0  0 0.000000 0.000000 0.000000 0.000000 0.000000 0.000000 NONE 0 0 0 0 1 0 0 0 0 0 0 0 0
