#	Name:			PISM00408
#	Creating user name:	baoopengkun
#	Creation time:		Sun Mar 31 18:30:50 2019

#	Modifying user name:	baoopengkun
#	Modification time:	Sun Mar 31 18:35:05 2019

@<TRIPOS>MOLECULE
PISM00408
   34    34     1     1     0
SMALL
GAST_HUCK


@<TRIPOS>ATOM
      1 C1         -2.9743   -2.2977  -12.0598 C.3       1 <1>        -0.0590 
      2 C2         -4.3673   -2.8261  -11.6186 C.3       1 <1>        -0.0609 
      3 C3         -4.9012   -3.8780  -12.6229 C.3       1 <1>        -0.0528 
      4 C4         -3.9085   -5.0601  -12.7411 C.3       1 <1>        -0.0378 
      5 C5         -2.5126   -4.5471  -13.1899 C.3       1 <1>         0.0398 
      6 C6         -1.9389   -3.4492  -12.2368 C.3       1 <1>         0.0450 
      7 H7         -3.0948   -1.8165  -13.0460 H         1 <1>         0.0158 
      8 C8         -2.4721   -1.2117  -11.0672 C.3       1 <1>        -0.0729 
      9 C9         -1.5561   -4.0256  -10.8851 C.2       1 <1>        -0.0703 
     10 C10        -0.3653   -3.8434  -10.2951 C.2       1 <1>        -0.0082 
     11 C11        -0.0537   -4.4207   -8.9703 C.2       1 <1>         0.0276 
     12 C12         1.1573   -4.7955   -8.5299 C.2       1 <1>         0.0852 
     13 C13         2.4228   -4.7450   -9.3009 C.2       1 <1>         0.3009 
     14 O14         2.4150   -4.4811  -10.4896 O.2       1 <1>        -0.3272 
     15 O15         3.6072   -4.9973   -8.7319 O.3       1 <1>        -0.2865 
     16 O16        -0.7751   -2.8610  -12.8542 O.3       1 <1>        -0.4518 
     17 H8         -1.8019   -5.3925  -13.1959 H         1 <1>         0.0448 
     18 H1         -5.0834   -1.9889  -11.5714 H         1 <1>         0.0256 
     19 H2         -4.3068   -3.2699  -10.6134 H         1 <1>         0.0256 
     20 H3         -5.0342   -3.4103  -13.6121 H         1 <1>         0.0265 
     21 H4         -5.8840   -4.2499  -12.2869 H         1 <1>         0.0265 
     22 H5         -4.2882   -5.7844  -13.4799 H         1 <1>         0.0277 
     23 H6         -3.8451   -5.5880  -11.7788 H         1 <1>         0.0277 
     24 O24        -2.6028   -4.0195  -14.5296 O.3       1 <1>        -0.4043 
     25 H9         -2.3824   -1.6197  -10.0494 H         1 <1>         0.0220 
     26 H10        -2.2900   -4.6198  -10.3452 H         1 <1>         0.0557 
     27 H11         0.3986   -3.2458  -10.7896 H         1 <1>         0.1255 
     28 H12        -0.9031   -4.5482   -8.2956 H         1 <1>         0.0918 
     29 H13         1.2161   -5.1838   -7.5133 H         1 <1>         0.1276 
     30 H14         3.5837   -5.1987   -7.8048 H         1 <1>         0.2526 
     31 H15        -0.1413   -3.5082  -13.1451 H         1 <1>         0.1857 
     32 H16        -3.1780   -0.3672  -11.0384 H         1 <1>         0.0220 
     33 H17        -1.4888   -0.8275  -11.3794 H         1 <1>         0.0220 
     34 H18        -2.8913   -4.6578  -15.1731 H         1 <1>         0.2080 
@<TRIPOS>BOND
     1    2    1 1    
     2    2    3 1    
     3    3    4 1    
     4    4    5 1    
     5    5    6 1    
     6    1    6 1    
     7    1    7 1    
     8    1    8 1    
     9    6    9 1    
    10    9   10 2    
    11   10   11 1    
    12   11   12 2    
    13   12   13 1    
    14   13   14 2    
    15   13   15 1    
    16    6   16 1    
    17    5   17 1    
    18    2   18 1    
    19    2   19 1    
    20    3   20 1    
    21    3   21 1    
    22    4   22 1    
    23    4   23 1    
    24    5   24 1    
    25    8   25 1    
    26    9   26 1    
    27   10   27 1    
    28   11   28 1    
    29   12   29 1    
    30   15   30 1    
    31   16   31 1    
    32    8   32 1    
    33    8   33 1    
    34   24   34 1    
@<TRIPOS>SUBSTRUCTURE
     1 ****        2 TEMP              0 ****  ****    0 ROOT 
@<TRIPOS>NORMAL
@<TRIPOS>FF_PBC
FORCE_FIELD_SETUP_FEATURE Force Field Setup information
v1.0  0 0.000000 0.000000 0.000000 0.000000 0.000000 0.000000 NONE 0 0 0 0 1 0 0 0 0 0 0 0 0
