#	Name:			PISM00138
#	Creating user name:	baoopengkun
#	Creation time:		Fri Jan 04 09:37:28 2019

#	Modifying user name:	baoopengkun
#	Modification time:	Fri Jan 04 09:40:49 2019

@<TRIPOS>MOLECULE
PISM00138
   35    38     1     1     0
SMALL
GAST_HUCK


@<TRIPOS>ATOM
      1 C1          0.8090  -11.3265    9.5380 C.3       1 <1>         0.1851 
      2 O2          1.3543  -11.5753    8.2025 O.3       1 <1>        -0.2951 
      3 C3          0.4772  -10.7902    7.4817 C.ar      1 <1>         0.1553 
      4 C4         -0.6143  -10.4004    8.2179 C.ar      1 <1>         0.1187 
      5 O5         -0.5854  -10.8834    9.5091 O.3       1 <1>        -0.2915 
      6 C6         -1.6199   -9.6033    7.6758 C.ar      1 <1>        -0.0428 
      7 C7         -1.4940   -9.2425    6.3254 C.ar      1 <1>        -0.0370 
      8 C8         -0.3735   -9.6319    5.5736 C.ar      1 <1>         0.0612 
      9 C9          0.6416  -10.4122    6.1484 C.ar      1 <1>         0.1279 
     10 O10         1.7733  -10.7937    5.4226 O.3       1 <1>        -0.3350 
     11 C11        -0.3004   -9.1956    4.1259 C.2       1 <1>         0.1876 
     12 N12        -1.1162   -8.2317    3.6499 N.am      1 <1>        -0.2770 
     13 C13        -2.0386   -7.5036    4.5233 C.3       1 <1>         0.0931 
     14 C14        -2.5459   -8.4170    5.6162 C.2       1 <1>        -0.0286 
     15 O15         0.5015   -9.7257    3.3758 O.2       1 <1>        -0.3983 
     16 C16        -3.1852   -6.8411    3.7088 C.3       1 <1>         0.1145 
     17 C17        -4.3074   -6.4045    4.6804 C.3       1 <1>         0.1184 
     18 C18        -4.9258   -7.6773    5.3144 C.3       1 <1>         0.1058 
     19 C19        -3.8420   -8.5074    5.9503 C.2       1 <1>        -0.0519 
     20 O20        -3.7454   -5.5483    5.6973 O.3       1 <1>        -0.3843 
     21 O21        -2.7403   -5.6704    2.9914 O.3       1 <1>        -0.3850 
     22 O22        -5.5743   -8.5104    4.3365 O.3       1 <1>        -0.3782 
     23 H23        -1.4798   -6.6968    5.0253 H         1 <1>         0.0700 
     24 H1          1.3982  -10.5036    9.9793 H         1 <1>         0.0970 
     25 H2          0.9291  -12.2091   10.1851 H         1 <1>         0.0970 
     26 H3         -2.4476   -9.2806    8.2960 H         1 <1>         0.0416 
     27 H4          2.3559  -11.3580    5.9202 H         1 <1>         0.2464 
     28 H5         -1.0304   -7.9856    2.6842 H         1 <1>         0.1860 
     29 H6         -3.5961   -7.5781    2.9968 H         1 <1>         0.0663 
     30 H7         -5.0749   -5.8554    4.1073 H         1 <1>         0.0672 
     31 H8         -5.6491   -7.3750    6.0923 H         1 <1>         0.0772 
     32 H9         -4.1731   -9.2155    6.7089 H         1 <1>         0.0549 
     33 H10        -4.3900   -5.2087    6.3101 H         1 <1>         0.2103 
     34 H11        -2.0586   -5.8388    2.3500 H         1 <1>         0.2102 
     35 H12        -6.3088   -8.0867    3.9030 H         1 <1>         0.2133 
@<TRIPOS>BOND
     1    2    1 1    
     2    2    3 1    
     3    3    4 ar   
     4    4    5 1    
     5    1    5 1    
     6    4    6 ar   
     7    6    7 ar   
     8    7    8 ar   
     9    8    9 ar   
    10    3    9 ar   
    11    9   10 1    
    12    8   11 1    
    13   11   12 am   
    14   12   13 1    
    15   13   14 1    
    16    7   14 1    
    17   11   15 2    
    18   13   16 1    
    19   16   17 1    
    20   17   18 1    
    21   18   19 1    
    22   14   19 2    
    23   17   20 1    
    24   16   21 1    
    25   18   22 1    
    26   13   23 1    
    27    1   24 1    
    28    1   25 1    
    29    6   26 1    
    30   10   27 1    
    31   12   28 1    
    32   16   29 1    
    33   17   30 1    
    34   18   31 1    
    35   19   32 1    
    36   20   33 1    
    37   21   34 1    
    38   22   35 1    
@<TRIPOS>SUBSTRUCTURE
     1 ****        2 TEMP              0 ****  ****    0 ROOT 
@<TRIPOS>NORMAL
@<TRIPOS>FF_PBC
FORCE_FIELD_SETUP_FEATURE Force Field Setup information
v1.0  0 0.000000 0.000000 0.000000 0.000000 0.000000 0.000000 NONE 0 0 0 0 1 0 0 0 0 0 0 0 0
