#	Name:			PISM00954
#	Creating user name:	baoopengkun
#	Creation time:		Thu Dec 13 10:18:09 2018

#	Modifying user name:	baoopengkun
#	Modification time:	Thu Dec 13 10:19:57 2018

@<TRIPOS>MOLECULE
PISM00954
   43    44     1     1     0
SMALL
GAST_HUCK


@<TRIPOS>ATOM
      1 C1        -11.9333   10.3662   -3.7261 C.3       1 <1>        -0.0576 
      2 C2        -13.4569   10.4302   -4.0484 C.3       1 <1>        -0.0087 
      3 C3        -13.8822   11.9320   -3.9767 C.3       1 <1>        -0.0576 
      4 C4        -13.6758    9.9378   -5.5122 C.3       1 <1>        -0.0576 
      5 C5        -14.3045    9.5841   -3.0258 C.3       1 <1>         0.0928 
      6 O6        -15.6663    9.4353   -3.4778 O.3       1 <1>        -0.3880 
      7 C7        -13.7721    8.1442   -2.7412 C.3       1 <1>         0.1146 
      8 N8        -12.6039    8.1586   -1.8666 N.pl3     1 <1>        -0.1724 
      9 N9        -12.3302    9.0556   -0.8771 N.2       1 <1>        -0.1898 
     10 C10       -11.2147    8.8365   -0.2871 C.2       1 <1>         0.0618 
     11 N11       -10.7582    7.6774   -1.0025 N.2       1 <1>        -0.2870 
     12 C12       -11.5889    7.3484   -1.8830 C.2       1 <1>         0.1282 
     13 C13       -14.8323    7.2169   -2.0737 C.3       1 <1>        -0.0077 
     14 C14       -15.3773    7.7637   -0.7247 C.3       1 <1>        -0.0160 
     15 C15       -16.2760    6.7978    0.0720 C.ar      1 <1>        -0.0426 
     16 C16       -16.8345    5.6327   -0.4719 C.ar      1 <1>        -0.0597 
     17 C17       -17.6294    4.7914    0.3128 C.ar      1 <1>        -0.0546 
     18 C18       -17.8838    5.1077    1.6490 C.ar      1 <1>         0.0330 
     19 C19       -17.3412    6.2713    2.1978 C.ar      1 <1>        -0.0546 
     20 C20       -16.5459    7.1090    1.4109 C.ar      1 <1>        -0.0597 
     21 Cl21      -18.8781    4.0509    2.6305 Cl        1 <1>        -0.0771 
     22 H1        -11.3622   11.0104   -4.4121 H         1 <1>         0.0236 
     23 H2        -11.5393    9.3466   -3.8391 H         1 <1>         0.0236 
     24 H3        -11.7395   10.7134   -2.7008 H         1 <1>         0.0236 
     25 H4        -14.9269   12.0800   -4.2838 H         1 <1>         0.0236 
     26 H5        -13.2591   12.5477   -4.6436 H         1 <1>         0.0236 
     27 H6        -13.7640   12.3216   -2.9539 H         1 <1>         0.0236 
     28 H7        -13.3207    8.9086   -5.6592 H         1 <1>         0.0236 
     29 H8        -13.1259   10.5792   -6.2182 H         1 <1>         0.0236 
     30 H9        -14.7412    9.9758   -5.7844 H         1 <1>         0.0236 
     31 H10       -14.3081   10.1040   -2.0530 H         1 <1>         0.0631 
     32 H11       -16.1553   10.2484   -3.5384 H         1 <1>         0.2099 
     33 H12       -13.5043    7.6711   -3.6978 H         1 <1>         0.0707 
     34 H13       -10.7436    9.3804    0.5303 H         1 <1>         0.0863 
     35 H14       -11.4545    6.5010   -2.5544 H         1 <1>         0.1361 
     36 H15       -14.3557    6.2400   -1.8882 H         1 <1>         0.0320 
     37 H16       -15.6677    7.0656   -2.7764 H         1 <1>         0.0320 
     38 H17       -15.9650    8.6780   -0.8982 H         1 <1>         0.0428 
     39 H18       -14.5211    8.0168   -0.0808 H         1 <1>         0.0428 
     40 H19       -16.6681    5.3563   -1.5055 H         1 <1>         0.0557 
     41 H20       -18.0527    3.8882   -0.1147 H         1 <1>         0.0606 
     42 H21       -17.5390    6.5221    3.2350 H         1 <1>         0.0606 
     43 H22       -16.1359    8.0129    1.8510 H         1 <1>         0.0557 
@<TRIPOS>BOND
     1    2    1 1    
     2    2    3 1    
     3    2    4 1    
     4    2    5 1    
     5    5    6 1    
     6    5    7 1    
     7    7    8 1    
     8    8    9 1    
     9    9   10 2    
    10   10   11 1    
    11   11   12 2    
    12    8   12 1    
    13    7   13 1    
    14   13   14 1    
    15   14   15 1    
    16   15   16 ar   
    17   16   17 ar   
    18   17   18 ar   
    19   18   19 ar   
    20   19   20 ar   
    21   15   20 ar   
    22   18   21 1    
    23    1   22 1    
    24    1   23 1    
    25    1   24 1    
    26    3   25 1    
    27    3   26 1    
    28    3   27 1    
    29    4   28 1    
    30    4   29 1    
    31    4   30 1    
    32    5   31 1    
    33    6   32 1    
    34    7   33 1    
    35   10   34 1    
    36   12   35 1    
    37   13   36 1    
    38   13   37 1    
    39   14   38 1    
    40   14   39 1    
    41   16   40 1    
    42   17   41 1    
    43   19   42 1    
    44   20   43 1    
@<TRIPOS>SUBSTRUCTURE
     1 ****        2 TEMP              0 ****  ****    0 ROOT 
@<TRIPOS>NORMAL
@<TRIPOS>FF_PBC
FORCE_FIELD_SETUP_FEATURE Force Field Setup information
v1.0  0 0.000000 0.000000 0.000000 0.000000 0.000000 0.000000 NONE 0 0 0 0 1 0 0 0 0 0 0 0 0
