#	Name:			PISM00877.1
#	Creating user name:	baoopengkun
#	Creation time:		Thu Dec 13 23:15:37 2018

#	Modifying user name:	baoopengkun
#	Modification time:	Fri Dec 14 00:06:40 2018

@<TRIPOS>MOLECULE
PISM00877.1
   26    27     1     1     0
SMALL
GAST_HUCK


@<TRIPOS>ATOM
      1 N1          4.1528    0.6971   -1.0404 N.pl3     1 <1>         0.1182 
      2 C2          4.6583   -0.3077    1.0746 C.ar      1 <1>        -0.0315 
      3 C3          5.5627   -0.9396    1.9321 C.ar      1 <1>         0.0170 
      4 C4          6.8653   -1.2008    1.5033 C.ar      1 <1>        -0.0702 
      5 C5          7.2476   -0.8467    0.2077 C.ar      1 <1>        -0.0430 
      6 C6          6.3320   -0.2477   -0.6618 C.ar      1 <1>         0.1233 
      7 C7          5.0338    0.0589   -0.2258 C.ar      1 <1>         0.1609 
      8 O8          2.9721    0.6045   -0.7840 O.2       1 <1>        -0.1159 
      9 O9          6.7334    0.0334   -1.9679 O.3       1 <1>        -0.2764 
     10 C10         6.3444   -0.9450   -2.9445 C.3       1 <1>         0.2332 
     11 O11         6.8947   -0.5381   -4.2128 O.3       1 <1>        -0.2317 
     12 C12         7.7588   -1.4897   -4.5433 C.2       1 <1>         0.2494 
     13 C13         7.8519   -2.6051   -3.6083 C.2       1 <1>         0.0291 
     14 C14         6.9868   -2.2807   -2.6499 C.2       1 <1>        -0.0024 
     15 C15         8.7117   -3.8356   -3.7059 C.3       1 <1>        -0.0323 
     16 O16         8.4211   -1.4334   -5.5651 O.2       1 <1>        -0.3691 
     17 H1          3.6578   -0.1022    1.4401 H         1 <1>         0.0488 
     18 Cl18        5.0640   -1.4021    3.5464 Cl        1 <1>        -0.0844 
     19 H3          7.5744   -1.6762    2.1736 H         1 <1>         0.0484 
     20 H4          5.2492   -1.0357   -3.0329 H         1 <1>         0.1194 
     21 H5          6.7773   -2.8939   -1.7743 H         1 <1>         0.0705 
     22 H6          8.0891   -4.7366   -3.6005 H         1 <1>         0.0347 
     23 H7          9.4662   -3.8221   -2.9054 H         1 <1>         0.0347 
     24 H8          9.2237   -3.8678   -4.6793 H         1 <1>         0.0347 
     25 O25         4.5885    1.3333   -1.9740 O.2       1 <1>        -0.1159 
     26 H2          8.2607   -1.0388   -0.1310 H         1 <1>         0.0503 
@<TRIPOS>BOND
     1    7    1 1    
     2    3    2 ar   
     3    4    3 ar   
     4    5    4 ar   
     5    6    5 ar   
     6    6    7 ar   
     7    2    7 ar   
     8    1    8 2    
     9    6    9 1    
    10    9   10 1    
    11   10   11 1    
    12   11   12 1    
    13   12   13 1    
    14   13   14 2    
    15   10   14 1    
    16   13   15 1    
    17   12   16 2    
    18    2   17 1    
    19    3   18 1    
    20    4   19 1    
    21   10   20 1    
    22   14   21 1    
    23   15   22 1    
    24   15   23 1    
    25   15   24 1    
    26    1   25 2    
    27    5   26 1    
@<TRIPOS>SUBSTRUCTURE
     1 ****        2 TEMP              0 ****  ****    0 ROOT 
@<TRIPOS>NORMAL
@<TRIPOS>FF_PBC
FORCE_FIELD_SETUP_FEATURE Force Field Setup information
v1.0  0 0.000000 0.000000 0.000000 0.000000 0.000000 0.000000 NONE 0 0 0 0 1 0 0 0 0 0 0 0 0
