#	Name:			PISM00295
#	Creating user name:	baoopengkun
#	Creation time:		Sun Dec 16 04:18:28 2018

#	Modifying user name:	baoopengkun
#	Modification time:	Sun Dec 16 04:20:54 2018

@<TRIPOS>MOLECULE
PISM00295
   34    36     1     1     0
SMALL
GAST_HUCK
INVALID_CHARGES

@<TRIPOS>ATOM
      1 C1         -3.2812    6.3717   48.1659 C.3       1 <1>        -0.0307 
      2 O2         -3.5914    5.5589   47.0224 O.3       1 <1>        -0.0490 
      3 C3         -4.7623    6.0124   46.3123 C.3       1 <1>        -0.0307 
      4 C4         -4.9864    7.5482   46.3914 C.3       1 <1>         0.0372 
      5 N5         -3.6931    8.2058   46.5705 N.am      1 <1>        -0.2861 
      6 C6         -2.7984    7.7458   47.6318 C.3       1 <1>         0.0372 
      7 C7         -3.3354    9.2849   45.8174 C.2       1 <1>         0.1064 
      8 S8         -1.9356   10.1999   46.2070 S.2       1 <1>        -0.2661 
      9 C9         -4.0864    9.7559   44.6363 C.2       1 <1>         0.1637 
     10 O10        -4.4983   11.0251   44.5622 O.3       1 <1>        -0.2442 
     11 C11        -5.1132   11.0418   43.3740 C.2       1 <1>         0.1306 
     12 C12        -5.1096    9.8867   42.7010 C.2       1 <1>        -0.0405 
     13 C13        -4.3833    8.9837   43.5899 C.2       1 <1>        -0.0368 
     14 C14        -5.7517   12.3254   42.8791 C.ar      1 <1>         0.0167 
     15 C15        -6.5606   12.3771   41.7363 C.ar      1 <1>        -0.0377 
     16 C16        -7.1144   13.5870   41.3073 C.ar      1 <1>         0.0539 
     17 C17        -6.8766   14.7612   42.0267 C.ar      1 <1>         0.0534 
     18 C18        -6.0826   14.7176   43.1748 C.ar      1 <1>        -0.0478 
     19 C19        -5.5248   13.5069   43.5956 C.ar      1 <1>        -0.0515 
     20 Cl20       -7.5660   16.2839   41.5000 Cl        1 <1>        -0.0705 
     21 Cl21       -8.1087   13.6222   39.8644 Cl        1 <1>        -0.0704 
     22 H1         -2.4727    5.8862   48.7354 H         1 <1>         0.0000 
     23 H2         -4.1546    6.4661   48.8319 H         1 <1>         0.0000 
     24 H3         -5.6480    5.4876   46.7060 H         1 <1>         0.0000 
     25 H4         -4.6175    5.7011   45.2660 H         1 <1>         0.0000 
     26 H5         -5.5759    7.7834   47.2921 H         1 <1>         0.0000 
     27 H6         -5.5903    7.8853   45.5378 H         1 <1>         0.0000 
     28 H7         -2.7520    8.4766   48.4553 H         1 <1>         0.0000 
     29 H8         -1.7867    7.6035   47.2171 H         1 <1>         0.0000 
     30 H9         -5.5208    9.6170   41.7305 H         1 <1>         0.0000 
     31 H10        -4.1427    7.9336   43.4269 H         1 <1>         0.0000 
     32 H11        -6.7768   11.4836   41.1647 H         1 <1>         0.0000 
     33 H12        -5.8990   15.6259   43.7398 H         1 <1>         0.0000 
     34 H13        -4.9089   13.4970   44.4892 H         1 <1>         0.0000 
@<TRIPOS>BOND
     1    2    1 1    
     2    2    3 1    
     3    3    4 1    
     4    4    5 1    
     5    5    6 1    
     6    1    6 1    
     7    5    7 am   
     8    7    8 2    
     9    7    9 1    
    10    9   10 1    
    11   10   11 1    
    12   11   12 2    
    13   12   13 1    
    14    9   13 2    
    15   11   14 1    
    16   14   15 ar   
    17   15   16 ar   
    18   16   17 ar   
    19   17   18 ar   
    20   18   19 ar   
    21   14   19 ar   
    22   17   20 1    
    23   16   21 1    
    24    1   22 1    
    25    1   23 1    
    26    3   24 1    
    27    3   25 1    
    28    4   26 1    
    29    4   27 1    
    30    6   28 1    
    31    6   29 1    
    32   12   30 1    
    33   13   31 1    
    34   15   32 1    
    35   18   33 1    
    36   19   34 1    
@<TRIPOS>SUBSTRUCTURE
     1 ****        2 TEMP              0 ****  ****    0 ROOT 
@<TRIPOS>NORMAL
@<TRIPOS>FF_PBC
FORCE_FIELD_SETUP_FEATURE Force Field Setup information
v1.0  0 0.000000 0.000000 0.000000 0.000000 0.000000 0.000000 NONE 0 0 0 0 1 0 0 0 0 0 0 0 0
