#	Name:			PISM00223
#	Creating user name:	14062
#	Creation time:		Fri Apr 05 23:21:44 2019

#	Modifying user name:	14062
#	Modification time:	Fri Apr 05 23:23:25 2019

@<TRIPOS>MOLECULE
PISM00223
   32    33     1     2     0
SMALL
GAST_HUCK


@<TRIPOS>ATOM
      1 Cl1         5.1784   -0.2146    0.8582 Cl        1 BENZYL     -0.0810 
      2 O2          0.1440    1.4107    3.5678 O.3       1 BENZYL     -0.2956 
      3 C2          1.3382    1.0000    2.9726 C.ar      1 BENZYL      0.1091 
      4 C3          1.5334   -0.3286    2.5794 C.ar      1 BENZYL     -0.0315 
      5 C4          2.7289   -0.7084    1.9632 C.ar      1 BENZYL     -0.0564 
      6 C5          3.7127    0.2467    1.6970 C.ar      1 BENZYL      0.0291 
      7 C6          3.5254    1.5712    2.1000 C.ar      1 BENZYL     -0.0426 
      8 C7          2.3492    1.9400    2.7572 C.ar      1 BENZYL      0.0687 
      9 H1          0.7648   -1.0739    2.7403 H         1 BENZYL      0.0543 
     10 H2          2.8938   -1.7445    1.6857 H         1 BENZYL      0.0597 
     11 C11        -0.3037    0.7192    4.7483 C.3       1 BENZYL      0.1652 
     12 C12        -1.5321    1.4263    5.2742 C.2       1 BENZYL      0.2347 
     13 N13        -1.4543    2.2439    6.2929 N.pl3     1 BENZYL     -0.2235 
     14 C14        -2.5439    2.8858    6.7749 C.ar      1 BENZYL      0.1261 
     15 C15        -3.4922    3.4832    5.9352 C.ar      1 BENZYL     -0.0118 
     16 C16        -4.6903    3.9604    6.4762 C.ar      1 BENZYL     -0.0373 
     17 C17        -4.8707    3.8845    7.8613 C.ar      1 BENZYL     -0.0457 
     18 C18        -3.8430    3.3880    8.6674 C.ar      1 BENZYL     -0.0102 
     19 N19        -2.6971    2.9426    8.1129 N.ar      1 BENZYL     -0.2906 
     20 C20        -5.7911    4.5529    5.5878 C.3       1 BENZYL     -0.0269 
     21 O21        -2.5874    1.1938    4.7060 O.2       1 BENZYL     -0.3751 
     22 Cl22        2.1411    3.5857    3.3181 Cl        1 BENZYL     -0.0787 
     23 H3          4.2911    2.3131    1.9029 H         1 BENZYL      0.0601 
     24 H4          0.5009    0.6988    5.4972 H         1 BENZYL      0.0869 
     25 H5         -0.5944   -0.3161    4.5232 H         1 BENZYL      0.0869 
     26 H6         -0.5592    2.3919    6.7778 H         1 BENZYL      0.2150 
     27 H7         -3.2930    3.5768    4.8733 H         1 BENZYL      0.0555 
     28 H8         -5.8021    4.2106    8.3097 H         1 BENZYL      0.0550 
     29 H9         -3.9579    3.3546    9.7448 H         1 BENZYL      0.0764 
     30 H10        -5.5264    4.5098    4.5210 H         1 BENZYL      0.0413 
     31 H11        -5.9623    5.6032    5.8642 H         1 BENZYL      0.0413 
     32 H12        -6.7224    3.9868    5.7372 H         1 BENZYL      0.0413 
@<TRIPOS>BOND
     1    2    3 1    
     2    3    4 ar   
     3    3    8 ar   
     4    8    7 ar   
     5    7    6 ar   
     6    6    5 ar   
     7    5    4 ar   
     8    6    1 1    
     9    4    9 1    
    10    5   10 1    
    11    2   11 1    
    12   11   12 1    
    13   12   13 1    
    14   13   14 1    
    15   14   15 ar   
    16   15   16 ar   
    17   16   17 ar   
    18   17   18 ar   
    19   18   19 ar   
    20   14   19 ar   
    21   16   20 1    
    22   12   21 2    
    23    8   22 1    
    24    7   23 1    
    25   11   24 1    
    26   11   25 1    
    27   13   26 1    
    28   15   27 1    
    29   17   28 1    
    30   18   29 1    
    31   20   30 1    
    32   20   31 1    
    33   20   32 1    
@<TRIPOS>SUBSTRUCTURE
     1 BENZYL      2 PERM              0 ****  ****    0 ROOT 
@<TRIPOS>NORMAL
@<TRIPOS>FF_PBC
FORCE_FIELD_SETUP_FEATURE Force Field Setup information
v1.0  0 0.000000 0.000000 0.000000 0.000000 0.000000 0.000000 NONE 0 0 0 0 1 0 0 0 0 0 0 0 0
@<TRIPOS>RENDERING_ATTRS
ANTIALIASED_LINES 
*
