#	Name:			PISM00553
#	Creating user name:	baoopengkun
#	Creation time:		Sat Dec 15 14:51:35 2018

#	Modifying user name:	baoopengkun
#	Modification time:	Sat Dec 15 14:59:40 2018

@<TRIPOS>MOLECULE
PISM00553
   38    39     1     1     0
SMALL
GAST_HUCK


@<TRIPOS>ATOM
      1 C1          7.1632    8.8172   17.3012 C.3       1 <1>        -0.0559 
      2 C2          8.1720    9.4313   15.0582 C.3       1 <1>        -0.0559 
      3 H1          7.4900    9.7795   17.7241 H         1 <1>         0.0238 
      4 H2          7.9627    8.0801   17.4721 H         1 <1>         0.0238 
      5 H3          6.2732    8.4871   17.8568 H         1 <1>         0.0238 
      6 H4          8.9812    8.6992   15.2043 H         1 <1>         0.0238 
      7 C7          5.7454   10.0096   15.5423 C.3       1 <1>         0.0216 
      8 C8          6.8726    8.9622   15.7767 C.3       1 <1>        -0.0064 
      9 C9          6.4196    7.5960   15.1855 C.3       1 <1>         0.0216 
     10 C10         5.0995    7.1535   15.7557 C.2       1 <1>         0.1090 
     11 C11         4.1009    8.1242   16.2439 C.2       1 <1>         0.0856 
     12 C12         4.4290    9.5576   16.1158 C.2       1 <1>         0.1090 
     13 O13         3.6248   10.3999   16.4803 O.2       1 <1>        -0.4049 
     14 O14         4.8417    5.9606   15.8194 O.2       1 <1>        -0.4049 
     15 C15         2.9383    7.7208   16.7823 C.2       1 <1>         0.0680 
     16 N16         2.6181    6.4565   16.9133 N.pl3     1 <1>        -0.2567 
     17 C17         1.4388    6.0714   17.4598 C.ar      1 <1>         0.0749 
     18 C18         1.0418    6.5880   18.6987 C.ar      1 <1>        -0.0418 
     19 C19        -0.1573    6.1760   19.2848 C.ar      1 <1>        -0.0766 
     20 C20        -0.9403    5.2099   18.6496 C.ar      1 <1>        -0.0652 
     21 C21        -0.5416    4.6805   17.4194 C.ar      1 <1>         0.0332 
     22 C22         0.6219    5.1472   16.7924 C.ar      1 <1>        -0.0048 
     23 H5          8.5069   10.4011   15.4575 H         1 <1>         0.0238 
     24 H6          8.0027    9.5452   13.9764 H         1 <1>         0.0238 
     25 H7          6.0308   10.9639   16.0125 H         1 <1>         0.0481 
     26 H8          5.5912   10.1914   14.4678 H         1 <1>         0.0481 
     27 H9          7.1797    6.8302   15.4070 H         1 <1>         0.0481 
     28 H10         6.3031    7.6559   14.0927 H         1 <1>         0.0481 
     29 H11         2.2431    8.4961   17.1133 H         1 <1>         0.1317 
     30 H12         3.2774    5.7228   16.5855 H         1 <1>         0.2264 
     31 H13         1.6676    7.3062   19.2186 H         1 <1>         0.0528 
     32 H14        -0.4770    6.6008   20.2317 H         1 <1>         0.0533 
     33 H33        -1.8606    4.8680   19.1125 H         1 <1>         0.0516 
     34 Cl34       -1.5230    3.4251   16.6865 Cl        1 <1>        -0.0803 
     35 C35         0.9981    4.6598   15.3837 C.3       1 <1>        -0.0321 
     36 H15         1.6186    3.7557   15.4721 H         1 <1>         0.0373 
     37 H16         1.5597    5.4290   14.8326 H         1 <1>         0.0373 
     38 H17         0.1053    4.4243   14.7867 H         1 <1>         0.0373 
@<TRIPOS>BOND
     1    8    1 1    
     2    8    2 1    
     3    1    3 1    
     4    1    4 1    
     5    1    5 1    
     6    2    6 1    
     7    2   23 1    
     8    7    8 1    
     9    8    9 1    
    10    9   10 1    
    11   11   10 1    
    12   12   11 1    
    13    7   12 1    
    14   12   13 2    
    15   10   14 2    
    16   11   15 2    
    17   15   16 1    
    18   16   17 1    
    19   17   18 ar   
    20   18   19 ar   
    21   19   20 ar   
    22   21   20 ar   
    23   22   21 ar   
    24   17   22 ar   
    25    2   24 1    
    26    7   25 1    
    27    7   26 1    
    28    9   27 1    
    29    9   28 1    
    30   15   29 1    
    31   16   30 1    
    32   18   31 1    
    33   19   32 1    
    34   20   33 1    
    35   21   34 1    
    36   22   35 1    
    37   35   36 1    
    38   35   37 1    
    39   35   38 1    
@<TRIPOS>SUBSTRUCTURE
     1 ****        7 TEMP              0 ****  ****    0 ROOT 
@<TRIPOS>NORMAL
@<TRIPOS>FF_PBC
FORCE_FIELD_SETUP_FEATURE Force Field Setup information
v1.0  0 0.000000 0.000000 0.000000 0.000000 0.000000 0.000000 NONE 0 0 0 0 1 0 0 0 0 0 0 0 0
