#	Name:			PISM00881
#	Creating user name:	baoopengkun
#	Creation time:		Sat Jan 12 21:44:40 2019

#	Modifying user name:	baoopengkun
#	Modification time:	Sat Jan 12 21:47:20 2019

@<TRIPOS>MOLECULE
PISM00881
   27    28     1     1     0
SMALL
GAST_HUCK


@<TRIPOS>ATOM
      1 C1         -4.9213   -7.0818   -4.0251 C.ar      1 <1>        -0.0489 
      2 C2         -5.8288   -7.1375   -5.0861 C.ar      1 <1>        -0.0668 
      3 C3         -6.4948   -8.3321   -5.3683 C.ar      1 <1>        -0.0659 
      4 C4         -6.2521   -9.4652   -4.5871 C.ar      1 <1>        -0.0267 
      5 C5         -5.3415   -9.4134   -3.5231 C.ar      1 <1>         0.1106 
      6 C6         -4.6725   -8.2151   -3.2409 C.ar      1 <1>         0.0905 
      7 C7         -3.6820   -8.1316   -2.0975 C.2       1 <1>         0.2622 
      8 O8         -3.0859   -7.0833   -1.9028 O.2       1 <1>        -0.3632 
      9 O9         -3.4662   -9.1913   -1.3073 O.3       1 <1>        -0.2294 
     10 C10        -2.4570   -8.9785   -0.3046 C.3       1 <1>         0.2401 
     11 O11        -2.4037  -10.1697    0.5069 O.3       1 <1>        -0.2315 
     12 C12        -1.1913  -10.6742    0.3173 C.2       1 <1>         0.2494 
     13 C13        -0.3233   -9.9065   -0.5664 C.2       1 <1>         0.0291 
     14 C14        -1.0841   -8.8767   -0.9321 C.2       1 <1>        -0.0022 
     15 C15         1.0988  -10.2111   -0.9506 C.3       1 <1>        -0.0323 
     16 O16        -0.8293  -11.7072    0.8537 O.2       1 <1>        -0.3691 
     17 H1         -4.4099   -6.1476   -3.8146 H         1 <1>         0.0643 
     18 H2         -6.0160   -6.2543   -5.6899 H         1 <1>         0.0537 
     19 H3         -7.1994   -8.3796   -6.1934 H         1 <1>         0.0627 
     20 H4         -6.7790  -10.3856   -4.8174 H         1 <1>         0.0556 
     21 O21        -5.0919  -10.5461   -2.7410 O.3       1 <1>        -0.3274 
     22 H6         -2.6808   -8.1175    0.3486 H         1 <1>         0.1194 
     23 H7         -0.7575   -8.0770   -1.5956 H         1 <1>         0.0704 
     24 H8          1.1074  -11.0058   -1.7111 H         1 <1>         0.0347 
     25 H9          1.6541  -10.5560   -0.0655 H         1 <1>         0.0347 
     26 H10         1.5954   -9.3174   -1.3575 H         1 <1>         0.0347 
     27 H5         -5.5888  -11.3201   -2.9804 H         1 <1>         0.2510 
@<TRIPOS>BOND
     1    2    1 ar   
     2    2    3 ar   
     3    3    4 ar   
     4    4    5 ar   
     5    5    6 ar   
     6    1    6 ar   
     7    6    7 1    
     8    7    8 2    
     9    7    9 1    
    10    9   10 1    
    11   10   11 1    
    12   11   12 1    
    13   12   13 1    
    14   13   14 2    
    15   10   14 1    
    16   13   15 1    
    17   12   16 2    
    18    1   17 1    
    19    2   18 1    
    20    3   19 1    
    21    4   20 1    
    22    5   21 1    
    23   10   22 1    
    24   14   23 1    
    25   15   24 1    
    26   15   25 1    
    27   15   26 1    
    28   21   27 1    
@<TRIPOS>SUBSTRUCTURE
     1 ****        2 TEMP              0 ****  ****    0 ROOT 
@<TRIPOS>NORMAL
@<TRIPOS>FF_PBC
FORCE_FIELD_SETUP_FEATURE Force Field Setup information
v1.0  0 0.000000 0.000000 0.000000 0.000000 0.000000 0.000000 NONE 0 0 0 0 1 0 0 0 0 0 0 0 0
