#	Name:			PISM00893
#	Creating user name:	baoopengkun
#	Creation time:		Fri Dec 14 10:01:04 2018

#	Modifying user name:	baoopengkun
#	Modification time:	Fri Dec 14 10:02:37 2018

@<TRIPOS>MOLECULE
PISM00893
   30    32     1     1     0
SMALL
GAST_HUCK


@<TRIPOS>ATOM
      1 C1         13.0058   11.8358   -0.7310 C.ar      1 <1>        -0.0385 
      2 C2         13.9589   12.0081    0.2773 C.ar      1 <1>        -0.0523 
      3 C3         13.5505   12.2379    1.5940 C.ar      1 <1>        -0.0523 
      4 C4         12.1881   12.2929    1.9002 C.ar      1 <1>        -0.0396 
      5 C5         11.2373   12.1178    0.8896 C.ar      1 <1>         0.0444 
      6 C6         11.6399   11.8920   -0.4293 C.ar      1 <1>         0.0573 
      7 C7         10.5937   11.7148   -1.5098 C.2       1 <1>         0.2124 
      8 C8          9.1443   11.7264   -1.1597 C.2       1 <1>         0.1765 
      9 C9          8.7896   11.9480    0.1109 C.2       1 <1>         0.0260 
     10 C10         9.7588   12.1672    1.1935 C.2       1 <1>         0.1390 
     11 O11        10.9948   11.5749   -2.6536 O.2       1 <1>        -0.3459 
     12 O12         9.3630   12.3833    2.3268 O.2       1 <1>        -0.3807 
     13 O13         8.1563   11.5303   -2.0605 O.3       1 <1>        -0.2479 
     14 C14         8.4957   11.1350   -3.4026 C.3       1 <1>         0.2419 
     15 C15         9.0256    9.7157   -3.4391 C.2       1 <1>        -0.0007 
     16 C16         8.1696    8.9056   -4.0581 C.2       1 <1>         0.0293 
     17 C17         7.0782    9.7921   -4.4376 C.2       1 <1>         0.2495 
     18 O18         7.2353   11.0653   -4.1011 O.3       1 <1>        -0.2302 
     19 C19         8.2919    7.4256   -4.2989 C.3       1 <1>        -0.0323 
     20 O20         6.0886    9.3981   -5.0302 O.2       1 <1>        -0.3691 
     21 H1         13.3349   11.6580   -1.7502 H         1 <1>         0.0682 
     22 H2         15.0174   11.9636    0.0379 H         1 <1>         0.0661 
     23 H3         14.2902   12.3733    2.3776 H         1 <1>         0.0662 
     24 H4         11.8702   12.4714    2.9229 H         1 <1>         0.0680 
     25 H5          7.7307   11.9661    0.3699 H         1 <1>         0.0486 
     26 H6          9.1031   11.8711   -3.9540 H         1 <1>         0.1213 
     27 H7          9.9688    9.3698   -3.0198 H         1 <1>         0.0706 
     28 H8          7.3023    6.9935   -4.5105 H         1 <1>         0.0347 
     29 H9          8.7141    6.9296   -3.4122 H         1 <1>         0.0347 
     30 H10         8.9520    7.2481   -5.1608 H         1 <1>         0.0347 
@<TRIPOS>BOND
     1    2    1 ar   
     2    2    3 ar   
     3    3    4 ar   
     4    4    5 ar   
     5    5    6 ar   
     6    1    6 ar   
     7    6    7 1    
     8    7    8 1    
     9    8    9 2    
    10    9   10 1    
    11    5   10 1    
    12    7   11 2    
    13   10   12 2    
    14    8   13 1    
    15   13   14 1    
    16   14   15 1    
    17   15   16 2    
    18   16   17 1    
    19   17   18 1    
    20   14   18 1    
    21   16   19 1    
    22   17   20 2    
    23    1   21 1    
    24    2   22 1    
    25    3   23 1    
    26    4   24 1    
    27    9   25 1    
    28   14   26 1    
    29   15   27 1    
    30   19   28 1    
    31   19   29 1    
    32   19   30 1    
@<TRIPOS>SUBSTRUCTURE
     1 ****        2 TEMP              0 ****  ****    0 ROOT 
@<TRIPOS>NORMAL
@<TRIPOS>FF_PBC
FORCE_FIELD_SETUP_FEATURE Force Field Setup information
v1.0  0 0.000000 0.000000 0.000000 0.000000 0.000000 0.000000 NONE 0 0 0 0 1 0 0 0 0 0 0 0 0
