#	Name:			PISM00242
#	Creating user name:	root
#	Creation time:		Wed Jun 26 13:26:00 2019

#	Modifying user name:	root
#	Modification time:	Wed Jun 26 13:26:08 2019

@<TRIPOS>MOLECULE
PISM00242
   64    65     1     1     0
SMALL
GAST_HUCK


@<TRIPOS>ATOM
      1 C1          6.8797   11.3330   -4.8809 C.3       1 <1>         0.1281 
      2 C2          6.6844    9.7912   -4.7654 C.3       1 <1>         0.1893 
      3 O3          6.1819    9.4261   -3.4617 O.3       1 <1>        -0.3206 
      4 C4          7.0430    9.7945   -2.3683 C.3       1 <1>         0.1914 
      5 C5          7.2989   11.3368   -2.3630 C.3       1 <1>         0.1345 
      6 C6          6.5144   11.9979   -3.5274 C.3       1 <1>         0.1163 
      7 C7          5.7907    9.2761    1.0700 C.3       1 <1>         0.1897 
      8 C8          6.9368    9.2767    0.0285 C.3       1 <1>         0.1347 
      9 C9          7.7459    7.9607    0.2003 C.3       1 <1>         0.1167 
     10 C10         6.7732    6.7699   -0.0176 C.3       1 <1>         0.1345 
     11 C11         5.6154    6.8774    1.0133 C.3       1 <1>         0.1914 
     12 O12         4.9348    8.1315    0.8532 O.3       1 <1>        -0.3205 
     13 H1          6.2015   11.7764   -5.6346 H         1 <1>         0.0673 
     14 O14         8.2410   11.6900   -5.2031 O.3       1 <1>        -0.3840 
     15 C15         7.8761    8.9512   -5.1974 C.2       1 <1>         0.2634 
     16 H4          5.8669    9.5003   -5.4454 H         1 <1>         0.0885 
     17 H5          7.9722    9.2126   -2.4459 H         1 <1>         0.0939 
     18 H6          8.3762   11.5284   -2.5046 H         1 <1>         0.0671 
     19 O19         6.8883   11.9519   -1.1251 O.3       1 <1>        -0.3841 
     20 O20         6.2502    9.3584   -1.2470 O.3       1 <1>        -0.3375 
     21 O21         6.7620   13.4155   -3.5848 O.3       1 <1>        -0.3862 
     22 H9          5.4383   11.8669   -3.3202 H         1 <1>         0.0649 
     23 C23         4.9591   10.5305    0.9021 C.2       1 <1>         0.2634 
     24 H11         6.1966    9.2882    2.0947 H         1 <1>         0.0885 
     25 O25         7.7133    7.9498   -5.8739 O.2       1 <1>        -0.3676 
     26 H13         8.1376    7.9139    1.2323 H         1 <1>         0.0649 
     27 O27         8.8774    7.9563   -0.6930 O.3       1 <1>        -0.3862 
     28 O28         7.4157    5.4874    0.1326 O.3       1 <1>        -0.3841 
     29 H16         6.3380    6.8390   -1.0306 H         1 <1>         0.0671 
     30 O30         6.1176    6.8490    2.3637 O.3       1 <1>        -0.3373 
     31 H32         7.6007   10.1332    0.2272 H         1 <1>         0.0677 
     32 O33         9.1246    9.2884   -4.8530 O.3       1 <1>        -0.2907 
     33 O34         4.8305   11.3240    1.8200 O.2       1 <1>        -0.3676 
     34 O35         4.3586   10.7632   -0.2700 O.3       1 <1>        -0.2907 
     35 C36         5.1459    6.5847    3.4054 C.3       1 <1>         0.1364 
     36 C37         5.1069    5.0804    3.8220 C.3       1 <1>         0.1303 
     37 C38         6.5333    4.4793    3.9883 C.3       1 <1>         0.1832 
     38 C39         6.4512    3.1297    4.6820 C.2       1 <1>         0.2630 
     39 C40         3.7461    7.2831    3.3150 C.3       1 <1>         0.1835 
     40 C41         2.7905    6.8690    2.2031 C.2       1 <1>         0.2631 
     41 O42         4.3497    4.2732    2.9034 O.3       1 <1>        -0.3839 
     42 O43         7.0858    4.3467    2.6635 O.3       1 <1>        -0.3674 
     43 O44         3.0711    7.2630    4.5921 O.3       1 <1>        -0.3674 
     44 O45         2.3550    7.6866    1.4100 O.2       1 <1>        -0.3676 
     45 O46         2.3814    5.6032    2.0783 O.3       1 <1>        -0.2907 
     46 O47         6.6311    2.0941    4.0649 O.2       1 <1>        -0.3676 
     47 O48         6.1894    3.0627    5.9937 O.3       1 <1>        -0.2907 
     48 H2          8.4685   11.5084   -6.1139 H         1 <1>         0.2102 
     49 H3          6.9900   12.8999   -1.1288 H         1 <1>         0.2101 
     50 H7          7.6655   13.6131   -3.8142 H         1 <1>         0.2100 
     51 H8          9.4603    7.2128   -0.5757 H         1 <1>         0.2100 
     52 H10         8.0659    5.3006   -0.5362 H         1 <1>         0.2101 
     53 H12         9.2040   10.1116   -4.3880 H         1 <1>         0.2540 
     54 H14         4.5716   10.0992   -0.9198 H         1 <1>         0.2540 
     55 H15         5.6326    7.0815    4.2624 H         1 <1>         0.0679 
     56 H17         4.5839    5.0117    4.7890 H         1 <1>         0.0675 
     57 H19         7.1740    5.1468    4.5881 H         1 <1>         0.0881 
     58 H20         3.9491    8.3538    3.1504 H         1 <1>         0.0881 
     59 H21         4.8644    4.0685    2.1235 H         1 <1>         0.2102 
     60 H22         7.9422    3.9304    2.6521 H         1 <1>         0.2136 
     61 H23         2.6746    6.4282    4.8170 H         1 <1>         0.2136 
     62 H24         2.7541    4.9960    2.7062 H         1 <1>         0.2540 
     63 H25         6.0931    3.8946    6.4394 H         1 <1>         0.2540 
     64 H65         4.9254    6.0467    0.8018 H         1 <1>         0.0939 
@<TRIPOS>BOND
     1    2    1 1    
     2    3    2 1    
     3    4    3 1    
     4    4    5 1    
     5    5    6 1    
     6    6    1 1    
     7    8    7 1    
     8    8    9 1    
     9    9   10 1    
    10   10   11 1    
    11   12   11 1    
    12    7   12 1    
    13    1   13 1    
    14    1   14 1    
    15    2   15 1    
    16    2   16 1    
    17    4   17 1    
    18    5   18 1    
    19    5   19 1    
    20   20    4 1    
    21    6   21 1    
    22    6   22 1    
    23    7   23 1    
    24    7   24 1    
    25   15   25 2    
    26    9   26 1    
    27    9   27 1    
    28    8   20 1    
    29   10   28 1    
    30   10   29 1    
    31   11   30 1    
    32    8   31 1    
    33   15   32 1    
    34   23   33 2    
    35   23   34 1    
    36   30   35 1    
    37   35   36 1    
    38   36   37 1    
    39   37   38 1    
    40   35   39 1    
    41   39   40 1    
    42   36   41 1    
    43   37   42 1    
    44   39   43 1    
    45   40   44 2    
    46   40   45 1    
    47   38   46 2    
    48   38   47 1    
    49   14   48 1    
    50   19   49 1    
    51   21   50 1    
    52   27   51 1    
    53   28   52 1    
    54   32   53 1    
    55   34   54 1    
    56   35   55 1    
    57   36   56 1    
    58   37   57 1    
    59   39   58 1    
    60   41   59 1    
    61   42   60 1    
    62   43   61 1    
    63   45   62 1    
    64   47   63 1    
    65   11   64 1    
@<TRIPOS>SUBSTRUCTURE
     1 ****        8 TEMP              0 ****  ****    0 ROOT 
@<TRIPOS>NORMAL
@<TRIPOS>FF_PBC
FORCE_FIELD_SETUP_FEATURE Force Field Setup information
v1.0  0 0.000000 0.000000 0.000000 0.000000 0.000000 0.000000 NONE 0 0 0 0 1 0 0 0 0 0 0 0 0
