#	Name:			PISM00847
#	Creating user name:	baoopengkun
#	Creation time:		Thu Dec 13 14:40:19 2018

#	Modifying user name:	baoopengkun
#	Modification time:	Thu Dec 13 15:06:54 2018

@<TRIPOS>MOLECULE
PISM00847
   36    38     1     1     0
SMALL
GAST_HUCK


@<TRIPOS>ATOM
      1 C1         -2.5103   18.2331    6.3223 C.ar      1 <1>        -0.0411 
      2 C2         -3.5315   17.2787    6.3120 C.ar      1 <1>        -0.0411 
      3 C3         -4.6968   17.4947    7.0523 C.ar      1 <1>         0.0865 
      4 C4         -4.8482   18.6718    7.7907 C.ar      1 <1>        -0.0411 
      5 C5         -3.8257   19.6252    7.8029 C.ar      1 <1>        -0.0411 
      6 C6         -2.6603   19.4090    7.0621 C.ar      1 <1>         0.0865 
      7 O7         -5.7058   16.5341    7.0506 O.3       1 <1>        -0.2784 
      8 O8         -1.6445   20.3627    7.0595 O.3       1 <1>        -0.2784 
      9 C9         -1.9064   21.5020    6.2275 C.3       1 <1>         0.2335 
     10 C10        -2.0009   21.0876    4.7775 C.2       1 <1>        -0.0023 
     11 C11        -1.0050   21.6214    4.0734 C.2       1 <1>         0.0291 
     12 C12        -0.2682   22.4011    5.0616 C.2       1 <1>         0.2494 
     13 O13        -0.7605   22.3736    6.2937 O.3       1 <1>        -0.2317 
     14 C14        -0.7160   21.4659    2.6054 C.3       1 <1>        -0.0323 
     15 O15         0.7290   23.0431    4.7796 O.2       1 <1>        -0.3691 
     16 C16        -5.7435   15.7175    8.2298 C.3       1 <1>         0.2335 
     17 C17        -4.4763   14.9029    8.3484 C.2       1 <1>        -0.0023 
     18 C18        -4.7421   13.6047    8.2198 C.2       1 <1>         0.0291 
     19 C19        -6.1890   13.5688    8.0407 C.2       1 <1>         0.2494 
     20 O20        -6.7970   14.7483    8.0631 O.3       1 <1>        -0.2317 
     21 C21        -3.7821   12.4476    8.2660 C.3       1 <1>        -0.0323 
     22 O22        -6.8048   12.5279    7.8881 O.2       1 <1>        -0.3691 
     23 H1         -1.5992   18.0666    5.7570 H         1 <1>         0.0516 
     24 H2         -3.4242   16.3680    5.7319 H         1 <1>         0.0516 
     25 H3         -5.7603   18.8441    8.3525 H         1 <1>         0.0516 
     26 H4         -3.9341   20.5326    8.3879 H         1 <1>         0.0516 
     27 H5         -2.8040   22.0550    6.5497 H         1 <1>         0.1194 
     28 H6         -2.7730   20.4390    4.3656 H         1 <1>         0.0705 
     29 H7          0.0730   22.1675    2.2953 H         1 <1>         0.0347 
     30 H8         -1.6248   21.6708    2.0201 H         1 <1>         0.0347 
     31 H9         -0.3800   20.4380    2.4033 H         1 <1>         0.0347 
     32 H10        -5.9320   16.3102    9.1400 H         1 <1>         0.1194 
     33 H11        -3.4829   15.3192    8.5110 H         1 <1>         0.0705 
     34 H12        -3.2750   12.3551    7.2942 H         1 <1>         0.0347 
     35 H13        -4.3242   11.5137    8.4776 H         1 <1>         0.0347 
     36 H14        -3.0296   12.6082    9.0524 H         1 <1>         0.0347 
@<TRIPOS>BOND
     1    2    1 ar   
     2    2    3 ar   
     3    3    4 ar   
     4    4    5 ar   
     5    5    6 ar   
     6    1    6 ar   
     7    3    7 1    
     8    6    8 1    
     9    8    9 1    
    10    9   10 1    
    11   10   11 2    
    12   11   12 1    
    13   12   13 1    
    14    9   13 1    
    15   11   14 1    
    16   12   15 2    
    17    7   16 1    
    18   16   17 1    
    19   17   18 2    
    20   18   19 1    
    21   19   20 1    
    22   16   20 1    
    23   18   21 1    
    24   19   22 2    
    25    1   23 1    
    26    2   24 1    
    27    4   25 1    
    28    5   26 1    
    29    9   27 1    
    30   10   28 1    
    31   14   29 1    
    32   14   30 1    
    33   14   31 1    
    34   16   32 1    
    35   17   33 1    
    36   21   34 1    
    37   21   35 1    
    38   21   36 1    
@<TRIPOS>SUBSTRUCTURE
     1 ****        2 TEMP              0 ****  ****    0 ROOT 
@<TRIPOS>NORMAL
@<TRIPOS>FF_PBC
FORCE_FIELD_SETUP_FEATURE Force Field Setup information
v1.0  0 0.000000 0.000000 0.000000 0.000000 0.000000 0.000000 NONE 0 0 0 0 1 0 0 0 0 0 0 0 0
