#	Name:			PISM00784.1
#	Creating user name:	baoopengkun
#	Creation time:		Sat Dec 15 01:09:24 2018

#	Modifying user name:	baoopengkun
#	Modification time:	Sat Dec 15 01:11:57 2018

@<TRIPOS>MOLECULE
PISM00784.1
   38    41     1     1     0
SMALL
GAST_HUCK


@<TRIPOS>ATOM
      1 C1         25.9253   14.4319  -30.2302 C.ar      1 <1>        -0.0763 
      2 C2         27.2955   14.2226  -30.0058 C.ar      1 <1>        -0.0742 
      3 C3         27.7510   13.1732  -29.1956 C.ar      1 <1>        -0.0412 
      4 C4         26.7881   12.3430  -28.6207 C.ar      1 <1>         0.0663 
      5 C5         25.4358   12.5598  -28.8502 C.ar      1 <1>        -0.0098 
      6 C6         24.9613   13.5969  -29.6505 C.ar      1 <1>        -0.0703 
      7 C7         24.8037   11.4517  -28.0517 C.2       1 <1>        -0.0183 
      8 C8         25.7997   10.7729  -27.4933 C.2       1 <1>         0.1037 
      9 N9         26.9651   11.2724  -27.8096 N.pl3     1 <1>        -0.2675 
     10 C10        28.2519   10.7557  -27.3602 C.3       1 <1>         0.0368 
     11 C11        25.2449    9.6792  -26.7015 C.2       1 <1>         0.1397 
     12 O12        25.8390    8.8447  -26.0382 O.2       1 <1>        -0.4040 
     13 C13        23.7850    9.7992  -26.8732 C.2       1 <1>         0.0278 
     14 C14        23.4099   10.9714  -27.7626 C.3       1 <1>        -0.0037 
     15 C15        22.8899    8.9778  -26.3163 C.2       1 <1>         0.0829 
     16 O16        21.5831    9.1838  -26.5372 O.3       1 <1>        -0.2667 
     17 C17        20.7221    8.2422  -25.8724 C.3       1 <1>         0.2400 
     18 C18        20.8530    8.3138  -24.3693 C.2       1 <1>        -0.0007 
     19 C19        21.2000    7.1249  -23.8794 C.2       1 <1>         0.0293 
     20 C20        21.2962    6.2779  -25.0643 C.2       1 <1>         0.2496 
     21 O21        21.0497    6.8819  -26.2211 O.3       1 <1>        -0.2302 
     22 C22        21.4288    6.7392  -22.4436 C.3       1 <1>        -0.0323 
     23 O23        21.5884    5.0965  -25.0036 O.2       1 <1>        -0.3691 
     24 H1         25.6058   15.2541  -30.8632 H         1 <1>         0.0517 
     25 H2         28.0186   14.8870  -30.4691 H         1 <1>         0.0552 
     26 H3         28.8096   13.0140  -29.0234 H         1 <1>         0.0546 
     27 H4         23.8988   13.7439  -29.8119 H         1 <1>         0.0563 
     28 H5         28.7848   11.5372  -26.7978 H         1 <1>         0.0554 
     29 H6         28.8544   10.4638  -28.2336 H         1 <1>         0.0554 
     30 H7         28.1332    9.8764  -26.7088 H         1 <1>         0.0554 
     31 H8         22.8216   11.7310  -27.2266 H         1 <1>         0.0475 
     32 H9         22.8934   10.6502  -28.6795 H         1 <1>         0.0475 
     33 H10        23.2867    8.1674  -25.7003 H         1 <1>         0.1132 
     34 H11        19.6796    8.4503  -26.1628 H         1 <1>         0.1214 
     35 H12        20.6857    9.2127  -23.7773 H         1 <1>         0.0706 
     36 H13        21.2876    5.6553  -22.3167 H         1 <1>         0.0347 
     37 H14        20.7225    7.2694  -21.7872 H         1 <1>         0.0347 
     38 H15        22.4572    7.0025  -22.1549 H         1 <1>         0.0347 
@<TRIPOS>BOND
     1    2    1 ar   
     2    2    3 ar   
     3    3    4 ar   
     4    4    5 ar   
     5    5    6 ar   
     6    1    6 ar   
     7    5    7 1    
     8    7    8 2    
     9    8    9 1    
    10    4    9 1    
    11    9   10 1    
    12    8   11 1    
    13   11   12 2    
    14   11   13 1    
    15   13   14 1    
    16    7   14 1    
    17   13   15 2    
    18   15   16 1    
    19   16   17 1    
    20   17   18 1    
    21   18   19 2    
    22   19   20 1    
    23   20   21 1    
    24   17   21 1    
    25   19   22 1    
    26   20   23 2    
    27    1   24 1    
    28    2   25 1    
    29    3   26 1    
    30    6   27 1    
    31   10   28 1    
    32   10   29 1    
    33   10   30 1    
    34   14   31 1    
    35   14   32 1    
    36   15   33 1    
    37   17   34 1    
    38   18   35 1    
    39   22   36 1    
    40   22   37 1    
    41   22   38 1    
@<TRIPOS>SUBSTRUCTURE
     1 ****        2 TEMP              0 ****  ****    0 ROOT 
@<TRIPOS>NORMAL
@<TRIPOS>FF_PBC
FORCE_FIELD_SETUP_FEATURE Force Field Setup information
v1.0  0 0.000000 0.000000 0.000000 0.000000 0.000000 0.000000 NONE 0 0 0 0 1 0 0 0 0 0 0 0 0
