#	Name:			PISM00296
#	Creating user name:	baoopengkun
#	Creation time:		Sun Dec 16 04:18:28 2018

#	Modifying user name:	baoopengkun
#	Modification time:	Sun Dec 16 04:21:35 2018

@<TRIPOS>MOLECULE
PISM00296
   36    38     1     1     0
SMALL
GAST_HUCK


@<TRIPOS>ATOM
      1 C1         -3.1949    6.3555   48.0891 C.3       1 <1>        -0.0307 
      2 C2         -3.5202    5.4323   46.8871 C.3       1 <1>        -0.0490 
      3 C3         -4.7710    5.9420   46.1109 C.3       1 <1>        -0.0307 
      4 C4         -5.0074    7.4645   46.3127 C.3       1 <1>         0.0372 
      5 N5         -3.7230    8.1508   46.4636 N.am      1 <1>        -0.2861 
      6 C6         -2.8078    7.7546   47.5366 C.3       1 <1>         0.0372 
      7 C7         -3.3884    9.2030   45.6633 C.2       1 <1>         0.1064 
      8 S8         -2.0031   10.1582   46.0059 S.2       1 <1>        -0.2661 
      9 C9         -4.1540    9.6076   44.4671 C.2       1 <1>         0.1637 
     10 O10        -4.5894   10.8645   44.3383 O.3       1 <1>        -0.2442 
     11 C11        -5.2124   10.8155   43.1550 C.2       1 <1>         0.1306 
     12 C12        -5.1913    9.6311   42.5354 C.2       1 <1>        -0.0405 
     13 C13        -4.4424    8.7833   43.4589 C.2       1 <1>        -0.0368 
     14 C14        -5.8789   12.0624   42.6058 C.ar      1 <1>         0.0162 
     15 C15        -6.6960   12.0452   41.4675 C.ar      1 <1>        -0.0516 
     16 C16        -7.2742   13.2250   40.9889 C.ar      1 <1>        -0.0483 
     17 C17        -7.0539   14.4345   41.6515 C.ar      1 <1>         0.0395 
     18 C18        -6.2522   14.4597   42.7946 C.ar      1 <1>        -0.0483 
     19 C19        -5.6696   13.2797   43.2661 C.ar      1 <1>        -0.0516 
     20 Cl20       -7.7794   15.9120   41.0521 Cl        1 <1>        -0.0711 
     21 H1         -2.3612    5.9413   48.6812 H         1 <1>         0.0287 
     22 H2         -4.0736    6.4211   48.7508 H         1 <1>         0.0287 
     23 H3         -3.6810    4.3959   47.2287 H         1 <1>         0.0267 
     24 H4         -2.6412    5.4296   46.2199 H         1 <1>         0.0267 
     25 H5         -5.6747    5.4040   46.4454 H         1 <1>         0.0287 
     26 H6         -4.6358    5.7242   45.0382 H         1 <1>         0.0287 
     27 H7         -5.5563    7.6253   47.2549 H         1 <1>         0.0545 
     28 H8         -5.6660    7.8523   45.5219 H         1 <1>         0.0545 
     29 H9         -2.8152    8.5005   48.3479 H         1 <1>         0.0545 
     30 H10        -1.7818    7.6773   47.1387 H         1 <1>         0.0545 
     31 H11        -5.6036    9.3100   41.5812 H         1 <1>         0.0425 
     32 H12        -4.1815    7.7321   43.3446 H         1 <1>         0.0486 
     33 H13        -6.8997   11.1222   40.9389 H         1 <1>         0.0617 
     34 H14        -7.8977   13.2048   40.1007 H         1 <1>         0.0620 
     35 H15        -6.0831   15.3973   43.3143 H         1 <1>         0.0620 
     36 H16        -5.0475   13.3193   44.1549 H         1 <1>         0.0617 
@<TRIPOS>BOND
     1    2    1 1    
     2    2    3 1    
     3    3    4 1    
     4    4    5 1    
     5    5    6 1    
     6    1    6 1    
     7    5    7 am   
     8    7    8 2    
     9    7    9 1    
    10    9   10 1    
    11   10   11 1    
    12   11   12 2    
    13   12   13 1    
    14    9   13 2    
    15   11   14 1    
    16   14   15 ar   
    17   15   16 ar   
    18   16   17 ar   
    19   17   18 ar   
    20   18   19 ar   
    21   14   19 ar   
    22   17   20 1    
    23    1   21 1    
    24    1   22 1    
    25    2   23 1    
    26    2   24 1    
    27    3   25 1    
    28    3   26 1    
    29    4   27 1    
    30    4   28 1    
    31    6   29 1    
    32    6   30 1    
    33   12   31 1    
    34   13   32 1    
    35   15   33 1    
    36   16   34 1    
    37   18   35 1    
    38   19   36 1    
@<TRIPOS>SUBSTRUCTURE
     1 ****        2 TEMP              0 ****  ****    0 ROOT 
@<TRIPOS>NORMAL
@<TRIPOS>FF_PBC
FORCE_FIELD_SETUP_FEATURE Force Field Setup information
v1.0  0 0.000000 0.000000 0.000000 0.000000 0.000000 0.000000 NONE 0 0 0 0 1 0 0 0 0 0 0 0 0
