#	Name:			PISM00436
#	Creating user name:	baoopengkun
#	Creation time:		Sun Mar 31 15:50:24 2019

#	Modifying user name:	baoopengkun
#	Modification time:	Sun Mar 31 15:52:18 2019

@<TRIPOS>MOLECULE
PISM00436
   40    42     1     1     0
SMALL
GAST_HUCK


@<TRIPOS>ATOM
      1 C1         -4.5566    7.3902    3.2691 C.ar      1 <1>        -0.0440 
      2 C2         -5.5565    6.7679    4.0192 C.ar      1 <1>        -0.0424 
      3 C3         -5.6274    5.3734    4.0537 C.ar      1 <1>        -0.0306 
      4 C4         -4.7068    4.6000    3.3373 C.ar      1 <1>         0.0353 
      5 C5         -3.7116    5.2183    2.5732 C.ar      1 <1>        -0.0598 
      6 C6         -3.6374    6.6161    2.5561 C.ar      1 <1>        -0.0567 
      7 C7         -4.7895    3.0925    3.3967 C.2       1 <1>         0.1792 
      8 C8         -3.7779    2.2563    2.6494 C.ar      1 <1>         0.0353 
      9 C9         -2.7826    2.8790    1.8890 C.ar      1 <1>        -0.0598 
     10 C10        -2.6900    4.4058    1.7602 C.3       1 <1>         0.0452 
     11 O11        -5.6693    2.5530    4.0504 O.2       1 <1>        -0.3479 
     12 C12        -3.8367    0.8592    2.7178 C.ar      1 <1>        -0.0306 
     13 C13        -2.8964    0.0781    2.0408 C.ar      1 <1>        -0.0424 
     14 C14        -1.8936    0.6967    1.2913 C.ar      1 <1>        -0.0440 
     15 C15        -1.8427    2.0914    1.2150 C.ar      1 <1>        -0.0567 
     16 C16        -1.3189    4.8395    2.2182 C.2       1 <1>        -0.0910 
     17 C17        -0.8726    4.5709    3.4526 C.2       1 <1>        -0.0196 
     18 C18         0.4600    4.9840    3.9520 C.2       1 <1>         0.0217 
     19 C19         1.6003    5.0692    2.9591 C.3       1 <1>        -0.0133 
     20 C20         0.6933    5.2758    5.2428 C.2       1 <1>         0.0627 
     21 C21        -0.2617    5.2819    6.3685 C.2       1 <1>         0.2728 
     22 O22        -1.4579    5.1267    6.1817 O.2       1 <1>        -0.3471 
     23 O23         0.1932    5.4721    7.6089 O.3       1 <1>        -0.2920 
     24 O24        -2.8687    4.6415    0.3539 O.3       1 <1>        -0.4678 
     25 H1         -4.4925    8.4737    3.2393 H         1 <1>         0.0689 
     26 H2         -6.2746    7.3654    4.5735 H         1 <1>         0.0747 
     27 H3         -6.4025    4.8927    4.6434 H         1 <1>         0.0713 
     28 H4         -2.8595    7.1149    1.9872 H         1 <1>         0.0740 
     29 H5         -4.6155    0.3744    3.2988 H         1 <1>         0.0713 
     30 H6         -2.9464   -1.0055    2.0974 H         1 <1>         0.0747 
     31 H7         -1.1570    0.0960    0.7669 H         1 <1>         0.0689 
     32 H8         -1.0686    2.5662    0.6215 H         1 <1>         0.0740 
     33 H9         -0.7038    5.3945    1.5121 H         1 <1>         0.0520 
     34 H10        -1.5436    4.0149    4.1072 H         1 <1>         0.1076 
     35 H11         1.4632    4.3380    2.1484 H         1 <1>         0.0431 
     36 H12         2.5757    4.8612    3.4247 H         1 <1>         0.0431 
     37 H13         1.6260    6.0803    2.5252 H         1 <1>         0.0431 
     38 H14         1.7019    5.5567    5.5436 H         1 <1>         0.0960 
     39 H15        -0.5067    5.4611    8.2535 H         1 <1>         0.2517 
     40 H16        -2.8093    5.5568    0.1050 H         1 <1>         0.1792 
@<TRIPOS>BOND
     1    2    1 ar   
     2    2    3 ar   
     3    3    4 ar   
     4    4    5 ar   
     5    5    6 ar   
     6    1    6 ar   
     7    4    7 1    
     8    7    8 1    
     9    8    9 ar   
    10    9   10 1    
    11    5   10 1    
    12    7   11 2    
    13    8   12 ar   
    14   12   13 ar   
    15   13   14 ar   
    16   14   15 ar   
    17    9   15 ar   
    18   10   16 1    
    19   16   17 2    
    20   17   18 1    
    21   18   19 1    
    22   18   20 2    
    23   20   21 1    
    24   21   22 2    
    25   21   23 1    
    26   10   24 1    
    27    1   25 1    
    28    2   26 1    
    29    3   27 1    
    30    6   28 1    
    31   12   29 1    
    32   13   30 1    
    33   14   31 1    
    34   15   32 1    
    35   16   33 1    
    36   17   34 1    
    37   19   35 1    
    38   19   36 1    
    39   19   37 1    
    40   20   38 1    
    41   23   39 1    
    42   24   40 1    
@<TRIPOS>SUBSTRUCTURE
     1 ****        2 TEMP              0 ****  ****    0 ROOT 
@<TRIPOS>NORMAL
@<TRIPOS>FF_PBC
FORCE_FIELD_SETUP_FEATURE Force Field Setup information
v1.0  0 0.000000 0.000000 0.000000 0.000000 0.000000 0.000000 NONE 0 0 0 0 1 0 0 0 0 0 0 0 0
