#	Name:			PISM00868
#	Creating user name:	baoopengkun
#	Creation time:		Thu Dec 13 23:15:37 2018

#	Modifying user name:	baoopengkun
#	Modification time:	Thu Dec 13 23:34:23 2018

@<TRIPOS>MOLECULE
PISM00868
   24    25     1     1     0
SMALL
GAST_HUCK


@<TRIPOS>ATOM
      1 H2          0.6101    1.2650    1.6223 H         1 <1>         0.0531 
      2 C2         -1.0900    2.5861    1.7644 C.ar      1 <1>        -0.0607 
      3 C3         -2.0798    3.2762    1.0587 C.ar      1 <1>         0.0267 
      4 C4         -2.1362    3.1838   -0.3346 C.ar      1 <1>        -0.0229 
      5 C5         -1.2012    2.4065   -1.0227 C.ar      1 <1>         0.1605 
      6 C6         -0.2016    1.7277   -0.3184 C.ar      1 <1>         0.1318 
      7 C7         -0.1541    1.8082    1.0762 C.ar      1 <1>        -0.0335 
      8 F8         -1.2670    2.3155   -2.3495 F         1 <1>        -0.1901 
      9 O9          0.7464    0.9719   -1.0067 O.3       1 <1>        -0.2705 
     10 C10         1.9800    1.6755   -1.1976 C.3       1 <1>         0.2351 
     11 O11         1.7363    2.9178   -1.8882 O.3       1 <1>        -0.2314 
     12 C12         2.3490    2.7925   -3.0585 C.2       1 <1>         0.2494 
     13 C13         3.0600    1.5353   -3.2635 C.2       1 <1>         0.0292 
     14 C14         2.8408    0.8648   -2.1341 C.2       1 <1>        -0.0021 
     15 C15         3.8479    1.0965   -4.4675 C.3       1 <1>        -0.0323 
     16 O16         2.3232    3.6766   -3.8974 O.2       1 <1>        -0.3691 
     17 H1         -1.0501    2.6554    2.8469 H         1 <1>         0.0561 
     18 Cl18       -3.2488    4.2555    1.9201 Cl        1 <1>        -0.0820 
     19 H3         -2.9048    3.7144   -0.8858 H         1 <1>         0.0580 
     20 H4          2.5020    1.8640   -0.2449 H         1 <1>         0.1197 
     21 H5          3.2208   -0.1322   -1.9152 H         1 <1>         0.0705 
     22 H6          3.5509    0.0785   -4.7608 H         1 <1>         0.0347 
     23 H7          4.9215    1.1048   -4.2281 H         1 <1>         0.0347 
     24 H8          3.6642    1.7779   -5.3118 H         1 <1>         0.0347 
@<TRIPOS>BOND
     1    7    1 1    
     2    3    2 ar   
     3    4    3 ar   
     4    5    4 ar   
     5    6    5 ar   
     6    6    7 ar   
     7    2    7 ar   
     8    5    8 1    
     9    6    9 1    
    10    9   10 1    
    11   10   11 1    
    12   11   12 1    
    13   12   13 1    
    14   13   14 2    
    15   10   14 1    
    16   13   15 1    
    17   12   16 2    
    18    2   17 1    
    19    3   18 1    
    20    4   19 1    
    21   10   20 1    
    22   14   21 1    
    23   15   22 1    
    24   15   23 1    
    25   15   24 1    
@<TRIPOS>SUBSTRUCTURE
     1 ****        2 TEMP              0 ****  ****    0 ROOT 
@<TRIPOS>NORMAL
@<TRIPOS>FF_PBC
FORCE_FIELD_SETUP_FEATURE Force Field Setup information
v1.0  0 0.000000 0.000000 0.000000 0.000000 0.000000 0.000000 NONE 0 0 0 0 1 0 0 0 0 0 0 0 0
