#	Name:			PISM00781
#	Creating user name:	baoopengkun
#	Creation time:		Fri Nov 30 22:22:14 2018

#	Modifying user name:	baoopengkun
#	Modification time:	Fri Nov 30 22:22:55 2018

@<TRIPOS>MOLECULE
PISM00781
   29    31     1     2     0
SMALL
GAST_HUCK


@<TRIPOS>ATOM
      1 C1        -19.1398   18.2088  -19.1370 C.ar      1 <1>        -0.0201 
      2 C2        -17.8994   17.7534  -19.5927 C.ar      1 <1>        -0.0643 
      3 C3        -17.8189   16.5554  -20.3080 C.ar      1 <1>        -0.0658 
      4 C4        -18.9774   15.8166  -20.5649 C.ar      1 <1>        -0.0502 
      5 C5        -20.2180   16.2744  -20.1075 C.ar      1 <1>         0.0640 
      6 C6        -20.3003   17.4733  -19.3924 C.ar      1 <1>         0.1447 
      7 O7        -21.5263   17.9520  -18.9265 O.3       1 <1>        -0.2156 
      8 C8        -22.6480   17.2635  -19.1603 C.2       1 <1>         0.2425 
      9 C9        -22.6361   15.9908  -19.9040 C.2       1 <1>         0.0344 
     10 C10       -21.4832   15.4922  -20.3720 C.2       1 <1>         0.1216 
     11 O11       -21.3850   14.3380  -21.0651 O.3       1 <1>        -0.2584 
     12 C12       -22.5823   13.5696  -21.2747 C.3       1 <1>         0.2403 
     13 C13       -22.1709   12.3055  -21.9901 C.2       1 <1>        -0.0010 
     14 C14       -22.4128   11.2346  -21.2365 C.2       1 <1>         0.0292 
     15 C15       -22.9946   11.7984  -20.0254 C.2       1 <1>         0.2495 
     16 O16       -23.1209   13.1190  -20.0138 O.3       1 <1>        -0.2305 
     17 C17       -22.1597    9.7838  -21.5433 C.3       1 <1>        -0.0323 
     18 O18       -23.3476   11.1068  -19.0861 O.2       1 <1>        -0.3691 
     19 O19       -23.7049   17.7083  -18.7461 O.2       1 <1>        -0.3915 
     20 H1        -19.2079   19.1383  -18.5812 H         1 <1>         0.0569 
     21 H2        -17.0006   18.3289  -19.3913 H         1 <1>         0.0629 
     22 H3        -16.8565   16.1992  -20.6637 H         1 <1>         0.0550 
     23 H4        -18.9070   14.8868  -21.1205 H         1 <1>         0.0638 
     24 H5        -23.6175   15.5365  -20.0210 H         1 <1>         0.0379 
     25 H6        -23.3342   14.0963  -21.8865 H         1 <1>         0.1210 
     26 H7        -21.7307   12.2816  -22.9863 H         1 <1>         0.0706 
     27 H8        -21.7967    9.6541  -22.5740 H         1 <1>         0.0347 
     28 H9        -23.0938    9.2158  -21.4186 H         1 <1>         0.0347 
     29 H10       -21.4060    9.3907  -20.8450 H         1 <1>         0.0347 
@<TRIPOS>BOND
     1    2    1 ar   
     2    2    3 ar   
     3    3    4 ar   
     4    4    5 ar   
     5    5    6 ar   
     6    1    6 ar   
     7    6    7 1    
     8    7    8 1    
     9    8    9 1    
    10    9   10 2    
    11    5   10 1    
    12   10   11 1    
    13   11   12 1    
    14   12   13 1    
    15   13   14 2    
    16   14   15 1    
    17   15   16 1    
    18   12   16 1    
    19   14   17 1    
    20   15   18 2    
    21    8   19 2    
    22    1   20 1    
    23    2   21 1    
    24    3   22 1    
    25    4   23 1    
    26    9   24 1    
    27   12   25 1    
    28   13   26 1    
    29   17   27 1    
    30   17   28 1    
    31   17   29 1    
@<TRIPOS>SUBSTRUCTURE
     1 ****        2 TEMP              0 ****  ****    0 ROOT 
@<TRIPOS>NORMAL
@<TRIPOS>FF_PBC
FORCE_FIELD_SETUP_FEATURE Force Field Setup information
v1.0  0 0.000000 0.000000 0.000000 0.000000 0.000000 0.000000 NONE 0 0 0 0 1 0 0 0 0 0 0 0 0
@<TRIPOS>RENDERING_ATTRS
ANTIALIASED_LINES 
*
