#	Name:			PISM00864.1
#	Creating user name:	baoopengkun
#	Creation time:		Thu Dec 13 15:12:19 2018

#	Modifying user name:	baoopengkun
#	Modification time:	Thu Dec 13 22:45:09 2018

@<TRIPOS>MOLECULE
PISM00864.1
   26    27     1     1     0
SMALL
GAST_HUCK


@<TRIPOS>ATOM
      1 F1          0.6780    1.3048    1.5756 F         1 <1>        -0.1944 
      2 C2          2.9231    0.6678    1.8942 C.ar      1 <1>        -0.0502 
      3 C3          4.2704    0.8268    1.5656 C.ar      1 <1>        -0.0862 
      4 C4          4.6468    1.7716    0.6069 C.ar      1 <1>        -0.0491 
      5 C5          3.6906    2.5676   -0.0420 C.ar      1 <1>         0.1588 
      6 C6          2.3409    2.4140    0.3130 C.ar      1 <1>         0.1555 
      7 C7          1.9630    1.4616    1.2652 C.ar      1 <1>         0.1490 
      8 N8          4.0725    3.4594   -0.9966 N.pl3     1 <1>         0.1171 
      9 O9          1.3578    3.2084   -0.2805 O.3       1 <1>        -0.2771 
     10 C10         0.5725    2.5532   -1.2869 C.3       1 <1>         0.2323 
     11 O11        -0.3215    3.5372   -1.8431 O.3       1 <1>        -0.2319 
     12 C12         0.0709    3.6975   -3.1008 C.2       1 <1>         0.2494 
     13 C13         1.1722    2.8424   -3.5282 C.2       1 <1>         0.0291 
     14 C14         1.4588    2.1354   -2.4373 C.2       1 <1>        -0.0025 
     15 C15         1.8207    2.7652   -4.8831 C.3       1 <1>        -0.0323 
     16 O16        -0.4650    4.4987   -3.8471 O.2       1 <1>        -0.3691 
     17 H1          2.6192   -0.0665    2.6333 H         1 <1>         0.0465 
     18 H2          5.0238    0.2166    2.0555 H         1 <1>         0.0481 
     19 H3          5.7027    1.8760    0.3771 H         1 <1>         0.0452 
     20 H4         -0.0110    1.7092   -0.8833 H         1 <1>         0.1192 
     21 H5          2.2323    1.3706   -2.3824 H         1 <1>         0.0705 
     22 H6          1.9358    1.7144   -5.1881 H         1 <1>         0.0347 
     23 H7          2.8122    3.2400   -4.8406 H         1 <1>         0.0347 
     24 H8          1.2049    3.2880   -5.6302 H         1 <1>         0.0347 
     25 O25         5.2052    3.3883   -1.4214 O.2       1 <1>        -0.1161 
     26 O26         3.2679    4.2755   -1.3864 O.2       1 <1>        -0.1161 
@<TRIPOS>BOND
     1    7    1 1    
     2    2    3 ar   
     3    3    4 ar   
     4    4    5 ar   
     5    5    6 ar   
     6    6    7 ar   
     7    2    7 ar   
     8    5    8 1    
     9    6    9 1    
    10    9   10 1    
    11   10   11 1    
    12   11   12 1    
    13   12   13 1    
    14   13   14 2    
    15   10   14 1    
    16   13   15 1    
    17   12   16 2    
    18    2   17 1    
    19    3   18 1    
    20    4   19 1    
    21   10   20 1    
    22   14   21 1    
    23   15   22 1    
    24   15   23 1    
    25   15   24 1    
    26    8   25 2    
    27    8   26 2    
@<TRIPOS>SUBSTRUCTURE
     1 ****        2 TEMP              0 ****  ****    0 ROOT 
@<TRIPOS>NORMAL
@<TRIPOS>FF_PBC
FORCE_FIELD_SETUP_FEATURE Force Field Setup information
v1.0  0 0.000000 0.000000 0.000000 0.000000 0.000000 0.000000 NONE 0 0 0 0 1 0 0 0 0 0 0 0 0
