#	Name:			PISM00824
#	Creating user name:	baoopengkun
#	Creation time:		Sat Dec 15 02:41:55 2018

#	Modifying user name:	baoopengkun
#	Modification time:	Sat Dec 15 02:46:27 2018

@<TRIPOS>MOLECULE
PISM00824
   52    55     1     1     0
SMALL
GAST_HUCK


@<TRIPOS>ATOM
      1 C1          0.0146   23.7138  -43.6681 C.ar      1 <1>        -0.0667 
      2 C2          0.2496   24.2131  -42.3821 C.ar      1 <1>        -0.0756 
      3 C3          1.1608   23.5791  -41.5270 C.ar      1 <1>        -0.0755 
      4 C4          1.8572   22.4396  -41.9456 C.ar      1 <1>        -0.0655 
      5 C5          1.6382   21.9647  -43.2402 C.ar      1 <1>        -0.0295 
      6 C6          0.7176   22.5799  -44.0779 C.ar      1 <1>        -0.0366 
      7 C7          0.6153   21.8539  -45.4100 C.3       1 <1>         0.0122 
      8 C8          1.2972   20.4910  -45.0919 C.3       1 <1>         0.1095 
      9 C9          2.2922   20.7723  -43.9269 C.3       1 <1>         0.0504 
     10 O10         2.0633   20.0400  -46.2161 O.3       1 <1>        -0.2748 
     11 C11         3.2929   20.4940  -46.0176 C.2       1 <1>         0.2375 
     12 C12         3.5440   21.1096  -44.6987 C.2       1 <1>         0.0631 
     13 O13         4.1069   20.3266  -46.9080 O.2       1 <1>        -0.3779 
     14 C14         4.5037   21.8252  -44.0773 C.2       1 <1>         0.0808 
     15 C15         5.8633   22.2838  -46.0198 C.3       1 <1>         0.2229 
     16 C16         6.5159   23.5919  -46.3935 C.2       1 <1>        -0.0055 
     17 C17         7.6642   23.4260  -47.0512 C.2       1 <1>         0.0226 
     18 C18         7.9064   21.9867  -47.1099 C.2       1 <1>         0.2239 
     19 N19         6.9191   21.3651  -46.4436 N.am      1 <1>        -0.1181 
     20 C20         8.5456   24.5067  -47.6166 C.3       1 <1>        -0.0329 
     21 O21         8.8816   21.4959  -47.6523 O.2       1 <1>        -0.3854 
     22 O22         5.6458   22.3170  -44.6042 O.3       1 <1>        -0.2744 
     23 C23         6.9294   20.0498  -46.1333 C.2       1 <1>         0.3573 
     24 O24         7.7954   19.3015  -46.5529 O.2       1 <1>        -0.3680 
     25 O25         5.9551   19.6342  -45.3092 O.3       1 <1>        -0.2535 
     26 C26         5.9800   18.2380  -44.9160 C.3       1 <1>         0.0910 
     27 C27         5.8021   17.2691  -46.1226 C.3       1 <1>        -0.0320 
     28 C28         7.2485   17.8868  -44.0827 C.3       1 <1>        -0.0320 
     29 C29         4.7417   18.0769  -43.9895 C.3       1 <1>        -0.0320 
     30 H1         -0.6959   24.1935  -44.3332 H         1 <1>         0.0537 
     31 H2         -0.2799   25.0988  -42.0443 H         1 <1>         0.0541 
     32 H3          1.3278   23.9746  -40.5298 H         1 <1>         0.0541 
     33 H4          2.5484   21.9352  -41.2786 H         1 <1>         0.0538 
     34 H5          1.1897   22.4268  -46.1545 H         1 <1>         0.0443 
     35 H6         -0.4253   21.7414  -45.7522 H         1 <1>         0.0443 
     36 H7          0.5325   19.7516  -44.7994 H         1 <1>         0.0707 
     37 H8          2.4246   19.9115  -43.2537 H         1 <1>         0.0565 
     38 H9          4.3871   22.0749  -43.0242 H         1 <1>         0.1079 
     39 H10         4.9792   22.3580  -46.6651 H         1 <1>         0.1171 
     40 H11         6.0851   24.5669  -46.1651 H         1 <1>         0.0696 
     41 H12         9.1946   24.0938  -48.4035 H         1 <1>         0.0348 
     42 H13         9.1750   24.9212  -46.8153 H         1 <1>         0.0348 
     43 H14         7.9339   25.3130  -48.0488 H         1 <1>         0.0348 
     44 H15         4.9538   17.6017  -46.7401 H         1 <1>         0.0260 
     45 H16         5.5963   16.2487  -45.7650 H         1 <1>         0.0260 
     46 H17         6.6930   17.2157  -46.7626 H         1 <1>         0.0260 
     47 H18         7.3713   18.6218  -43.2728 H         1 <1>         0.0260 
     48 H19         8.1665   17.8839  -44.6857 H         1 <1>         0.0260 
     49 H20         7.1499   16.8860  -43.6356 H         1 <1>         0.0260 
     50 H21         3.8170   18.2488  -44.5587 H         1 <1>         0.0260 
     51 H22         4.7907   18.8037  -43.1642 H         1 <1>         0.0260 
     52 H23         4.6886   17.0654  -43.5584 H         1 <1>         0.0260 
@<TRIPOS>BOND
     1    1    2 ar   
     2    3    2 ar   
     3    4    3 ar   
     4    5    4 ar   
     5    5    6 ar   
     6    6    1 ar   
     7    6    7 1    
     8    8    7 1    
     9    9    8 1    
    10    9    5 1    
    11    8   10 1    
    12   11   10 1    
    13   12   11 1    
    14   12    9 1    
    15   11   13 2    
    16   14   12 2    
    17   22   14 1    
    18   15   16 1    
    19   16   17 2    
    20   18   17 1    
    21   19   18 am   
    22   15   19 1    
    23   17   20 1    
    24   18   21 2    
    25   15   22 1    
    26   19   23 am   
    27   23   24 2    
    28   23   25 1    
    29   25   26 1    
    30   26   27 1    
    31   26   28 1    
    32   26   29 1    
    33    1   30 1    
    34    2   31 1    
    35    3   32 1    
    36    4   33 1    
    37    7   34 1    
    38    7   35 1    
    39    8   36 1    
    40    9   37 1    
    41   14   38 1    
    42   15   39 1    
    43   16   40 1    
    44   20   41 1    
    45   20   42 1    
    46   20   43 1    
    47   27   44 1    
    48   27   45 1    
    49   27   46 1    
    50   28   47 1    
    51   28   48 1    
    52   28   49 1    
    53   29   50 1    
    54   29   51 1    
    55   29   52 1    
@<TRIPOS>SUBSTRUCTURE
     1 ****       15 TEMP              0 ****  ****    0 ROOT 
@<TRIPOS>NORMAL
@<TRIPOS>FF_PBC
FORCE_FIELD_SETUP_FEATURE Force Field Setup information
v1.0  0 0.000000 0.000000 0.000000 0.000000 0.000000 0.000000 NONE 0 0 0 0 1 0 0 0 0 0 0 0 0
