#	Name:			PISM00564
#	Creating user name:	malab
#	Creation time:		Thu Apr 04 21:41:44 2019

#	Modifying user name:	malab
#	Modification time:	Thu Apr 04 21:43:11 2019

@<TRIPOS>MOLECULE
PISM00564
   42    44     1     1     0
SMALL
GAST_HUCK


@<TRIPOS>ATOM
      1 C1         21.2487   13.2909   -8.9389 C.ar      1 <1>        -0.0681 
      2 C2         20.1825   13.4584   -8.0526 C.ar      1 <1>        -0.0684 
      3 C3         20.1698   12.7598   -6.8427 C.ar      1 <1>        -0.0681 
      4 C4         21.2234   11.8998   -6.5277 C.ar      1 <1>        -0.0578 
      5 C5         22.2821   11.7077   -7.4218 C.ar      1 <1>        -0.0238 
      6 C6         22.2699   12.3828   -8.6483 C.ar      1 <1>        -0.0578 
      7 C7         23.4268   10.7609   -7.0291 C.3       1 <1>         0.0610 
      8 C8         24.5219   11.5210   -6.2353 C.3       1 <1>        -0.0119 
      9 C9         25.3188   12.4674   -7.1692 C.3       1 <1>         0.0186 
     10 C10        25.9141   11.6829   -8.3101 C.2       1 <1>         0.1093 
     11 C11        25.3006   10.4347   -8.8032 C.2       1 <1>         0.0887 
     12 C12        24.0023   10.0412   -8.2200 C.2       1 <1>         0.1233 
     13 O13        23.3785    9.1039   -8.6904 O.2       1 <1>        -0.4015 
     14 O14        26.9454   12.0754   -8.8336 O.2       1 <1>        -0.4046 
     15 C15        25.9190    9.6742   -9.7236 C.2       1 <1>         0.0701 
     16 N16        27.0793    9.9915  -10.2454 N.pl3     1 <1>        -0.2483 
     17 C17        27.7283    9.1484  -11.0863 C.ar      1 <1>         0.1012 
     18 C18        27.9665    7.8192  -10.7172 C.ar      1 <1>        -0.0063 
     19 C19        28.6018    6.9460  -11.6064 C.ar      1 <1>        -0.0389 
     20 C20        28.9746    7.3885  -12.8780 C.ar      1 <1>        -0.0409 
     21 C21        28.7811    8.7273  -13.2370 C.ar      1 <1>         0.0390 
     22 C22        28.1852    9.6055  -12.3258 C.ar      1 <1>        -0.0064 
     23 C23        29.2163    9.2373  -14.6149 C.3       1 <1>         0.3740 
     24 H1         21.2809   13.8684   -9.8583 H         1 <1>         0.0600 
     25 H2         19.3622   14.1276   -8.2974 H         1 <1>         0.0561 
     26 H3         19.3427   12.8825   -6.1500 H         1 <1>         0.0600 
     27 H4         21.2126   11.3758   -5.5757 H         1 <1>         0.0561 
     28 H5         23.0487   12.2105   -9.3838 H         1 <1>         0.0561 
     29 H6         23.0268    9.9818   -6.3590 H         1 <1>         0.0667 
     30 H7         25.2242   10.7938   -5.7952 H         1 <1>         0.0336 
     31 H8         24.0600   12.0887   -5.4078 H         1 <1>         0.0336 
     32 H9         26.1413   12.9153   -6.5900 H         1 <1>         0.0477 
     33 H10        24.6866   13.2835   -7.5525 H         1 <1>         0.0477 
     34 H11        25.4244    8.7480  -10.0280 H         1 <1>         0.1321 
     35 H12        27.5293   10.8979  -10.0036 H         1 <1>         0.2284 
     36 H13        27.6691    7.4626   -9.7349 H         1 <1>         0.0798 
     37 H14        28.8058    5.9233  -11.3030 H         1 <1>         0.0675 
     38 H15        29.4167    6.6888  -13.5801 H         1 <1>         0.0775 
     39 H16        28.0692   10.6509  -12.5828 H         1 <1>         0.0764 
     40 F40        29.7435   10.4870  -14.5011 F         1 <1>        -0.2206 
     41 F41        28.1250    9.2902  -15.4215 F         1 <1>        -0.2206 
     42 F42        30.1451    8.4182  -15.1792 F         1 <1>        -0.2206 
@<TRIPOS>BOND
     1    2    1 ar   
     2    2    3 ar   
     3    3    4 ar   
     4    4    5 ar   
     5    5    6 ar   
     6    1    6 ar   
     7    5    7 1    
     8    7    8 1    
     9    8    9 1    
    10    9   10 1    
    11   10   11 1    
    12   11   12 1    
    13    7   12 1    
    14   12   13 2    
    15   10   14 2    
    16   11   15 2    
    17   15   16 1    
    18   16   17 1    
    19   17   18 ar   
    20   18   19 ar   
    21   19   20 ar   
    22   20   21 ar   
    23   21   22 ar   
    24   17   22 ar   
    25   21   23 1    
    26    1   24 1    
    27    2   25 1    
    28    3   26 1    
    29    4   27 1    
    30    6   28 1    
    31    7   29 1    
    32    8   30 1    
    33    8   31 1    
    34    9   32 1    
    35    9   33 1    
    36   15   34 1    
    37   16   35 1    
    38   18   36 1    
    39   19   37 1    
    40   20   38 1    
    41   22   39 1    
    42   23   40 1    
    43   23   41 1    
    44   23   42 1    
@<TRIPOS>SUBSTRUCTURE
     1 ****        2 TEMP              0 ****  ****    0 ROOT 
@<TRIPOS>NORMAL
@<TRIPOS>FF_PBC
FORCE_FIELD_SETUP_FEATURE Force Field Setup information
v1.0  0 0.000000 0.000000 0.000000 0.000000 0.000000 0.000000 NONE 0 0 0 0 1 0 0 0 0 0 0 0 0
