#	Name:			PISM00048
#	Creating user name:	baoopengkun
#	Creation time:		Thu Dec 27 12:11:49 2018

#	Modifying user name:	baoopengkun
#	Modification time:	Thu Dec 27 12:14:08 2018

@<TRIPOS>MOLECULE
PISM00048
   26    27     1     1     0
SMALL
GAST_HUCK


@<TRIPOS>ATOM
      1 Br1         3.4414   15.2414   -8.2521 Br        1 <1>        -0.0599 
      2 C2          3.1442   14.4394   -9.8952 C.ar      1 <1>         0.0018 
      3 C3          4.1335   13.6365  -10.4705 C.ar      1 <1>        -0.0470 
      4 C4          3.9095   13.0274  -11.7084 C.ar      1 <1>         0.0709 
      5 C5          2.6935   13.2199  -12.3712 C.ar      1 <1>         0.1119 
      6 C6          1.7074   14.0285  -11.7999 C.ar      1 <1>        -0.0293 
      7 C7          1.9309   14.6365  -10.5611 C.ar      1 <1>        -0.0609 
      8 Cl8         5.1535   12.0235  -12.4256 Cl        1 <1>        -0.0781 
      9 O9          2.4605   12.6082  -13.6030 O.3       1 <1>        -0.2938 
     10 C10         1.8935   11.2864  -13.5142 C.3       1 <1>         0.1668 
     11 C11         1.6548   10.6745  -14.8785 C.2       1 <1>         0.2414 
     12 O12         1.9254   11.3391  -15.8643 O.2       1 <1>        -0.3731 
     13 N13         1.1676    9.4616  -14.9405 N.pl3     1 <1>        -0.1979 
     14 C14         0.9237    8.8398  -16.0620 C.2       1 <1>         0.2027 
     15 S15         1.1895    9.4770  -17.7118 S.3       1 <1>         0.0151 
     16 C16         0.5658    7.9167  -18.3399 C.2       1 <1>        -0.0032 
     17 C17         0.2156    7.0597  -17.3757 C.2       1 <1>        -0.0402 
     18 N18         0.4516    7.6655  -16.0901 N.2       1 <1>        -0.3162 
     19 H1          5.0770   13.4850   -9.9571 H         1 <1>         0.0622 
     20 H2          0.7692   14.1817  -12.3232 H         1 <1>         0.0549 
     21 H3          1.1629   15.2617  -10.1167 H         1 <1>         0.0617 
     22 H4          0.9276   11.3377  -12.9882 H         1 <1>         0.0871 
     23 H5          2.5773   10.6284  -12.9562 H         1 <1>         0.0871 
     24 H6          0.9585    8.9534  -14.0698 H         1 <1>         0.2243 
     25 H7          0.4843    7.6985  -19.4039 H         1 <1>         0.0606 
     26 H8         -0.1862    6.0583  -17.5282 H         1 <1>         0.0510 
@<TRIPOS>BOND
     1    2    1 1    
     2    2    3 ar   
     3    3    4 ar   
     4    4    5 ar   
     5    5    6 ar   
     6    6    7 ar   
     7    2    7 ar   
     8    4    8 1    
     9    5    9 1    
    10    9   10 1    
    11   10   11 1    
    12   11   12 2    
    13   11   13 1    
    14   13   14 1    
    15   14   15 1    
    16   15   16 1    
    17   16   17 2    
    18   17   18 1    
    19   14   18 2    
    20    3   19 1    
    21    6   20 1    
    22    7   21 1    
    23   10   22 1    
    24   10   23 1    
    25   13   24 1    
    26   16   25 1    
    27   17   26 1    
@<TRIPOS>SUBSTRUCTURE
     1 ****        2 TEMP              0 ****  ****    0 ROOT 
@<TRIPOS>NORMAL
@<TRIPOS>FF_PBC
FORCE_FIELD_SETUP_FEATURE Force Field Setup information
v1.0  0 0.000000 0.000000 0.000000 0.000000 0.000000 0.000000 NONE 0 0 0 0 1 0 0 0 0 0 0 0 0
