#	Name:			PISM00967.1
#	Creating user name:	baoopengkun
#	Creation time:		Thu Dec 13 10:35:31 2018

#	Modifying user name:	baoopengkun
#	Modification time:	Thu Dec 13 11:09:50 2018

@<TRIPOS>MOLECULE
PISM00967.1
   41    43     1     1     0
SMALL
GAST_HUCK


@<TRIPOS>ATOM
      1 C1         -8.7498   12.9017   -6.4749 C.ar      1 <1>        -0.0235 
      2 C2         -7.4680   12.3651   -6.6153 C.ar      1 <1>         0.0417 
      3 C3         -7.2911   11.1830   -7.3381 C.ar      1 <1>        -0.0235 
      4 C4         -8.3888   10.5490   -7.9277 C.ar      1 <1>        -0.0352 
      5 C5         -9.6735   11.1004   -7.8278 C.ar      1 <1>        -0.0168 
      6 C6         -9.8442   12.2646   -7.0669 C.ar      1 <1>        -0.0352 
      7 C7        -10.8934   10.4488   -8.5226 C.3       1 <1>         0.0891 
      8 O8        -11.8861   11.4626   -8.7664 O.3       1 <1>        -0.4193 
      9 C9        -10.5160    9.7805   -9.8834 C.3       1 <1>        -0.0344 
     10 C10       -11.4712    9.4229   -7.5053 C.3       1 <1>         0.0833 
     11 N11       -12.5333    8.5810   -8.0357 N.pl3     1 <1>        -0.1834 
     12 N12       -13.8573    8.8949   -8.1105 N.2       1 <1>        -0.1908 
     13 C13       -14.5753    7.9452   -8.5836 C.2       1 <1>         0.0618 
     14 N14       -13.5756    6.9376   -8.8073 N.2       1 <1>        -0.2870 
     15 C15       -12.4436    7.3596   -8.4686 C.2       1 <1>         0.1269 
     16 C16       -11.6954    9.6648  -10.8907 C.3       1 <1>        -0.0236 
     17 C17       -11.2539    8.8301  -12.1017 C.ar      1 <1>        -0.0434 
     18 C18       -10.5282    9.4286  -13.1381 C.ar      1 <1>        -0.0597 
     19 C19       -10.1266    8.6760  -14.2455 C.ar      1 <1>        -0.0546 
     20 C20       -10.4463    7.3180  -14.3213 C.ar      1 <1>         0.0330 
     21 C21       -11.1673    6.7147  -13.2877 C.ar      1 <1>        -0.0546 
     22 C22       -11.5693    7.4686  -12.1812 C.ar      1 <1>        -0.0597 
     23 Cl23       -9.9440    6.3740  -15.7090 Cl        1 <1>        -0.0771 
     24 Br24       -6.0122   13.2143   -5.8458 Br        1 <1>        -0.0236 
     25 H1         -8.8952   13.8138   -5.9045 H         1 <1>         0.0719 
     26 H2         -6.2980   10.7565   -7.4403 H         1 <1>         0.0719 
     27 H3         -8.2234    9.6191   -8.4598 H         1 <1>         0.0854 
     28 H4        -10.8342   12.6861   -6.9235 H         1 <1>         0.0854 
     29 H5        -11.5744   12.1527   -9.3434 H         1 <1>         0.1965 
     30 H6        -10.1041    8.7752   -9.7030 H         1 <1>         0.0222 
     31 H7         -9.7402   10.3865  -10.3792 H         1 <1>         0.0222 
     32 H8        -11.8841    9.9759   -6.6476 H         1 <1>         0.0574 
     33 H9        -10.6621    8.7758   -7.1310 H         1 <1>         0.0574 
     34 H10       -15.6487    7.9124   -8.7635 H         1 <1>         0.0863 
     35 H11       -11.5323    6.7669   -8.5365 H         1 <1>         0.1361 
     36 H12       -12.0059   10.6594  -11.2469 H         1 <1>         0.0420 
     37 H13       -12.5792    9.2042  -10.4313 H         1 <1>         0.0420 
     38 H14       -10.2728   10.4822  -13.0862 H         1 <1>         0.0557 
     39 H15        -9.5662    9.1442  -15.0482 H         1 <1>         0.0606 
     40 H16       -11.4145    5.6597  -13.3465 H         1 <1>         0.0606 
     41 H17       -12.1280    6.9885  -11.3841 H         1 <1>         0.0557 
@<TRIPOS>BOND
     1    2    1 ar   
     2    2    3 ar   
     3    3    4 ar   
     4    4    5 ar   
     5    5    6 ar   
     6    1    6 ar   
     7    5    7 1    
     8    7    8 1    
     9    7    9 1    
    10    7   10 1    
    11   10   11 1    
    12   11   12 1    
    13   12   13 2    
    14   13   14 1    
    15   14   15 2    
    16   11   15 1    
    17    9   16 1    
    18   16   17 1    
    19   17   18 ar   
    20   18   19 ar   
    21   19   20 ar   
    22   20   21 ar   
    23   21   22 ar   
    24   17   22 ar   
    25   20   23 1    
    26    2   24 1    
    27    1   25 1    
    28    3   26 1    
    29    4   27 1    
    30    6   28 1    
    31    8   29 1    
    32    9   30 1    
    33    9   31 1    
    34   10   32 1    
    35   10   33 1    
    36   13   34 1    
    37   15   35 1    
    38   16   36 1    
    39   16   37 1    
    40   18   38 1    
    41   19   39 1    
    42   21   40 1    
    43   22   41 1    
@<TRIPOS>SUBSTRUCTURE
     1 ****        2 TEMP              0 ****  ****    0 ROOT 
@<TRIPOS>NORMAL
@<TRIPOS>FF_PBC
FORCE_FIELD_SETUP_FEATURE Force Field Setup information
v1.0  0 0.000000 0.000000 0.000000 0.000000 0.000000 0.000000 NONE 0 0 0 0 1 0 0 0 0 0 0 0 0
