#	Name:			PISM00342
#	Creating user name:	baoopengkun
#	Creation time:		Sun Mar 31 18:46:55 2019

#	Modifying user name:	baoopengkun
#	Modification time:	Sun Mar 31 18:51:58 2019

@<TRIPOS>MOLECULE
PISM00342
   67    67     1     1     0
SMALL
GAST_HUCK


@<TRIPOS>ATOM
      1 C1          8.0505   -3.6532  -13.1577 C.3       1 <1>        -0.0486 
      2 C2          7.3001   -4.8994  -12.6040 C.3       1 <1>         0.0225 
      3 C3          6.5977   -4.5453  -11.3246 C.2       1 <1>         0.1783 
      4 C4          6.1293   -3.1718  -11.0642 C.2       1 <1>         0.1080 
      5 C5          6.3254   -2.1813  -11.9475 C.2       1 <1>        -0.0545 
      6 C6          7.0656   -2.4355  -13.2451 C.3       1 <1>         0.0241 
      7 C7          9.2527   -3.3485  -12.2065 C.3       1 <1>        -0.0722 
      8 C8          8.6127   -3.9826  -14.5717 C.3       1 <1>        -0.0722 
      9 O9          6.4172   -5.4150  -10.4871 O.2       1 <1>        -0.3530 
     10 S10         5.2908   -2.8806   -9.5133 S.3       1 <1>        -0.0484 
     11 C11         5.8267   -0.7654  -11.7375 C.3       1 <1>        -0.0414 
     12 C12         5.9547   -2.6667  -14.2488 C.2       1 <1>        -0.0993 
     13 C13         5.7311   -1.8892  -15.3170 C.2       1 <1>        -0.0245 
     14 C14         4.6397   -2.1578  -16.2770 C.2       1 <1>         0.0167 
     15 C15         4.4642   -3.5725  -16.7825 C.3       1 <1>        -0.0145 
     16 C16         3.8195   -1.1873  -16.7105 C.2       1 <1>         0.0580 
     17 C17         3.8453    0.2321  -16.2811 C.2       1 <1>         0.2688 
     18 O18         4.5054    0.5816  -15.3189 O.2       1 <1>        -0.3498 
     19 O19         3.1419    1.1731  -16.9196 O.3       1 <1>        -0.2928 
     20 O20         7.7738   -1.2467  -13.6425 O.3       1 <1>        -0.4725 
     21 C21         6.8051   -2.4412   -8.6002 C.3       1 <1>         0.0189 
     22 C22         6.4081   -1.9835   -7.1738 C.3       1 <1>        -0.0402 
     23 C23         7.6579   -1.6064   -6.3321 C.3       1 <1>        -0.0520 
     24 C24         7.2552   -1.1178   -4.9136 C.3       1 <1>        -0.0530 
     25 C25         8.5019   -0.7507   -4.0628 C.3       1 <1>        -0.0531 
     26 C26         8.0925   -0.2401   -2.6543 C.3       1 <1>        -0.0531 
     27 C27         9.3362    0.1346   -1.8029 C.3       1 <1>        -0.0533 
     28 C28         8.9247    0.6584   -0.3998 C.3       1 <1>        -0.0559 
     29 C29        10.1685    1.0377    0.4452 C.3       1 <1>        -0.0653 
     30 H1          8.0140   -5.7150  -12.4101 H         1 <1>         0.0479 
     31 H2          6.5538   -5.2924  -13.3076 H         1 <1>         0.0479 
     32 H3          9.8568   -4.2521  -12.0341 H         1 <1>         0.0220 
     33 H4          8.9040   -2.9829  -11.2292 H         1 <1>         0.0220 
     34 H5          9.9316   -2.5980  -12.6365 H         1 <1>         0.0220 
     35 H6          9.3347   -4.8116  -14.5163 H         1 <1>         0.0220 
     36 H7          9.1242   -3.1036  -14.9930 H         1 <1>         0.0220 
     37 H8          7.8094   -4.2756  -15.2638 H         1 <1>         0.0220 
     38 H9          5.4499   -0.3596  -12.6890 H         1 <1>         0.0386 
     39 H10         6.6553   -0.1306  -11.3918 H         1 <1>         0.0386 
     40 H11         5.0085   -0.6912  -11.0083 H         1 <1>         0.0386 
     41 H12         5.2782   -3.5049  -14.0908 H         1 <1>         0.0493 
     42 H13         6.3617   -1.0216  -15.5086 H         1 <1>         0.1042 
     43 H14         4.2931   -3.5834  -17.8700 H         1 <1>         0.0429 
     44 H15         3.6025   -4.0370  -16.2799 H         1 <1>         0.0429 
     45 H16         5.3596   -4.1797  -16.5794 H         1 <1>         0.0429 
     46 H17         3.0557   -1.4634  -17.4365 H         1 <1>         0.0917 
     47 H18         2.6464    0.8670  -17.6685 H         1 <1>         0.2516 
     48 H19         8.3947   -0.9244  -13.0009 H         1 <1>         0.1785 
     49 H20         7.3271   -1.6278   -9.1287 H         1 <1>         0.0422 
     50 H21         7.4638   -3.3230   -8.5591 H         1 <1>         0.0422 
     51 H22         5.8584   -2.7971   -6.6723 H         1 <1>         0.0276 
     52 H23         5.7390   -1.1102   -7.2524 H         1 <1>         0.0276 
     53 H24         8.2172   -0.8077   -6.8471 H         1 <1>         0.0266 
     54 H25         8.3157   -2.4870   -6.2434 H         1 <1>         0.0266 
     55 H26         6.6859   -1.9111   -4.4018 H         1 <1>         0.0265 
     56 H27         6.6055   -0.2318   -5.0064 H         1 <1>         0.0265 
     57 H28         9.0792    0.0329   -4.5804 H         1 <1>         0.0265 
     58 H29         9.1450   -1.6398   -3.9567 H         1 <1>         0.0265 
     59 H30         7.5175   -1.0238   -2.1338 H         1 <1>         0.0265 
     60 H31         7.4472    0.6471   -2.7623 H         1 <1>         0.0265 
     61 H32         9.9151    0.9139   -2.3256 H         1 <1>         0.0265 
     62 H33         9.9795   -0.7531   -1.6856 H         1 <1>         0.0265 
     63 H34         8.3504   -0.1191    0.1313 H         1 <1>         0.0263 
     64 H35         8.2806    1.5467   -0.5112 H         1 <1>         0.0263 
     65 H36        10.8182    0.1604    0.5886 H         1 <1>         0.0230 
     66 H37         9.8569    1.4083    1.4344 H         1 <1>         0.0230 
     67 H38        10.7471    1.8278   -0.0582 H         1 <1>         0.0230 
@<TRIPOS>BOND
     1    2    1 1    
     2    2    3 1    
     3    3    4 1    
     4    4    5 2    
     5    5    6 1    
     6    1    6 1    
     7    1    7 1    
     8    1    8 1    
     9    3    9 2    
    10    4   10 1    
    11    5   11 1    
    12    6   12 1    
    13   12   13 2    
    14   13   14 1    
    15   14   15 1    
    16   14   16 2    
    17   16   17 1    
    18   17   18 2    
    19   17   19 1    
    20    6   20 1    
    21   10   21 1    
    22   21   22 1    
    23   22   23 1    
    24   23   24 1    
    25   24   25 1    
    26   25   26 1    
    27   26   27 1    
    28   27   28 1    
    29   28   29 1    
    30    2   30 1    
    31    2   31 1    
    32    7   32 1    
    33    7   33 1    
    34    7   34 1    
    35    8   35 1    
    36    8   36 1    
    37    8   37 1    
    38   11   38 1    
    39   11   39 1    
    40   11   40 1    
    41   12   41 1    
    42   13   42 1    
    43   15   43 1    
    44   15   44 1    
    45   15   45 1    
    46   16   46 1    
    47   19   47 1    
    48   20   48 1    
    49   21   49 1    
    50   21   50 1    
    51   22   51 1    
    52   22   52 1    
    53   23   53 1    
    54   23   54 1    
    55   24   55 1    
    56   24   56 1    
    57   25   57 1    
    58   25   58 1    
    59   26   59 1    
    60   26   60 1    
    61   27   61 1    
    62   27   62 1    
    63   28   63 1    
    64   28   64 1    
    65   29   65 1    
    66   29   66 1    
    67   29   67 1    
@<TRIPOS>SUBSTRUCTURE
     1 ****        2 TEMP              0 ****  ****    0 ROOT 
@<TRIPOS>NORMAL
@<TRIPOS>FF_PBC
FORCE_FIELD_SETUP_FEATURE Force Field Setup information
v1.0  0 0.000000 0.000000 0.000000 0.000000 0.000000 0.000000 NONE 0 0 0 0 1 0 0 0 0 0 0 0 0
