#	Name:			PISM00470
#	Creating user name:	baoopengkun
#	Creation time:		Sun Dec 16 01:37:27 2018

#	Modifying user name:	baoopengkun
#	Modification time:	Sun Dec 16 01:39:24 2018

@<TRIPOS>MOLECULE
PISM00470
   47    50     1     1     0
SMALL
GAST_HUCK


@<TRIPOS>ATOM
      1 C1        -13.2151   27.6822   38.4385 C.3       1 <1>        -0.0343 
      2 C2        -12.2870   26.4803   38.2251 C.ar      1 <1>        -0.0528 
      3 C3        -12.2374   25.8162   36.9952 C.ar      1 <1>        -0.0671 
      4 C4        -11.3945   24.7149   36.8196 C.ar      1 <1>        -0.0662 
      5 C5        -10.5845   24.2589   37.8672 C.ar      1 <1>        -0.0419 
      6 C6        -10.6307   24.9326   39.0939 C.ar      1 <1>        -0.0662 
      7 C7        -11.4734   26.0337   39.2709 C.ar      1 <1>        -0.0671 
      8 C8         -9.6630   23.0401   37.6691 C.3       1 <1>         0.0187 
      9 C9        -10.0341   21.8919   38.6431 C.3       1 <1>         0.0351 
     10 C10        -9.1474   20.7075   38.3737 C.2       1 <1>         0.1341 
     11 O11        -9.5716   19.5767   38.5472 O.2       1 <1>        -0.3838 
     12 C12        -7.7313   20.9273   37.8926 C.ar      1 <1>         0.0717 
     13 C13        -7.2647   22.2189   37.6372 C.ar      1 <1>         0.0525 
     14 C14        -8.1717   23.4340   37.8382 C.3       1 <1>         0.0167 
     15 C15        -6.8535   19.8618   37.6855 C.ar      1 <1>         0.0255 
     16 N16        -5.6006   20.1047   37.2522 N.ar      1 <1>        -0.2561 
     17 C17        -5.1640   21.3574   37.0140 C.ar      1 <1>         0.1879 
     18 N18        -6.0005   22.3987   37.2047 N.ar      1 <1>        -0.2481 
     19 N19        -3.9090   21.6387   36.5909 N.pl3     1 <1>        -0.2849 
     20 C20        -2.8941   20.6312   36.2534 C.3       1 <1>         0.0428 
     21 C21        -1.9991   20.3595   37.4845 C.3       1 <1>        -0.0294 
     22 C22        -2.8031   19.2974   38.2637 C.3       1 <1>        -0.0508 
     23 C23        -3.3211   18.3507   37.1495 C.3       1 <1>        -0.0508 
     24 C24        -3.3807   19.2114   35.8517 C.3       1 <1>        -0.0294 
     25 H1        -12.6171   28.6048   38.3976 H         1 <1>         0.0378 
     26 H2        -13.7020   27.6124   39.4230 H         1 <1>         0.0378 
     27 H3        -13.9988   27.7303   37.6676 H         1 <1>         0.0378 
     28 H4        -12.8538   26.1530   36.1677 H         1 <1>         0.0540 
     29 H5        -11.3785   24.2180   35.8549 H         1 <1>         0.0540 
     30 H6        -10.0141   24.6113   39.9256 H         1 <1>         0.0540 
     31 H7        -11.4940   26.5448   40.2284 H         1 <1>         0.0540 
     32 H8         -9.7837   22.6503   36.6434 H         1 <1>         0.0502 
     33 H9        -11.0886   21.6076   38.4972 H         1 <1>         0.0509 
     34 H10        -9.8939   22.1868   39.6931 H         1 <1>         0.0509 
     35 H11        -7.9040   24.2071   37.1004 H         1 <1>         0.0518 
     36 H12        -7.9693   23.8281   38.8447 H         1 <1>         0.0518 
     37 H13        -7.1701   18.8409   37.8696 H         1 <1>         0.0930 
     38 H14        -3.6737   22.6340   36.4532 H         1 <1>         0.1883 
     39 H15        -2.2867   21.0580   35.4337 H         1 <1>         0.0563 
     40 H16        -1.8001   21.2684   38.0749 H         1 <1>         0.0288 
     41 H17        -1.0380   19.9227   37.1634 H         1 <1>         0.0288 
     42 H18        -3.6427   19.7889   38.7809 H         1 <1>         0.0266 
     43 H19        -2.1931   18.7769   39.0205 H         1 <1>         0.0266 
     44 H20        -4.2961   17.9096   37.4137 H         1 <1>         0.0266 
     45 H21        -2.6022   17.5230   37.0212 H         1 <1>         0.0266 
     46 H22        -4.3685   19.2310   35.3665 H         1 <1>         0.0288 
     47 H23        -2.6733   18.7870   35.1178 H         1 <1>         0.0288 
@<TRIPOS>BOND
     1    2    1 1    
     2    2    3 ar   
     3    3    4 ar   
     4    4    5 ar   
     5    5    6 ar   
     6    6    7 ar   
     7    2    7 ar   
     8    5    8 1    
     9    8    9 1    
    10    9   10 1    
    11   10   11 2    
    12   10   12 1    
    13   12   13 ar   
    14   13   14 1    
    15    8   14 1    
    16   12   15 ar   
    17   15   16 ar   
    18   16   17 ar   
    19   17   18 ar   
    20   13   18 ar   
    21   17   19 1    
    22   19   20 1    
    23   20   21 1    
    24   21   22 1    
    25   22   23 1    
    26   23   24 1    
    27   20   24 1    
    28    1   25 1    
    29    1   26 1    
    30    1   27 1    
    31    3   28 1    
    32    4   29 1    
    33    6   30 1    
    34    7   31 1    
    35    8   32 1    
    36    9   33 1    
    37    9   34 1    
    38   14   35 1    
    39   14   36 1    
    40   15   37 1    
    41   19   38 1    
    42   20   39 1    
    43   21   40 1    
    44   21   41 1    
    45   22   42 1    
    46   22   43 1    
    47   23   44 1    
    48   23   45 1    
    49   24   46 1    
    50   24   47 1    
@<TRIPOS>SUBSTRUCTURE
     1 ****        2 TEMP              0 ****  ****    0 ROOT 
@<TRIPOS>NORMAL
@<TRIPOS>FF_PBC
FORCE_FIELD_SETUP_FEATURE Force Field Setup information
v1.0  0 0.000000 0.000000 0.000000 0.000000 0.000000 0.000000 NONE 0 0 0 0 1 0 0 0 0 0 0 0 0
