#	Name:			PISM00996
#	Creating user name:	baoopengkun
#	Creation time:		Fri Jan 11 22:05:04 2019

#	Modifying user name:	baoopengkun
#	Modification time:	Fri Jan 11 22:39:59 2019

@<TRIPOS>MOLECULE
PISM00996
   39    41     1     1     0
SMALL
GAST_HUCK


@<TRIPOS>ATOM
      1 O1         13.1251    7.2606  -14.7763 O.3       1 <1>        -0.3321 
      2 H3         13.8574    9.2097  -14.5105 H         1 <1>         0.0571 
      3 C3         20.1984    3.2928   -3.0640 C.2       1 <1>         0.0412 
      4 C4         20.9467    4.1424   -3.7732 C.2       1 <1>         0.0412 
      5 C5         12.9053    8.6745  -14.6532 C.3       1 <1>         0.0557 
      6 H1         20.4642    2.7791   -2.1413 H         1 <1>         0.0816 
      7 C7         18.9209    3.1819   -3.7807 C.2       1 <1>         0.2576 
      8 O8         17.9912    2.4886   -3.4051 O.2       1 <1>        -0.3492 
      9 N9         18.9774    3.9384   -4.8361 N.pl3     1 <1>        -0.1377 
     10 C10        20.1242    4.5442   -4.9221 C.2       1 <1>         0.2576 
     11 O11        20.5005    5.3134   -5.7898 O.2       1 <1>        -0.3492 
     12 C12        17.9719    4.0776   -5.7347 C.ar      1 <1>         0.0861 
     13 C13        17.2781    2.9560   -6.2039 C.ar      1 <1>        -0.0343 
     14 C14        16.2491    3.0979   -7.1397 C.ar      1 <1>        -0.0441 
     15 C15        15.9096    4.3653   -7.6212 C.ar      1 <1>         0.1021 
     16 C16        16.5978    5.4882   -7.1548 C.ar      1 <1>        -0.0441 
     17 C17        17.6160    5.3462   -6.2077 C.ar      1 <1>        -0.0343 
     18 S18        14.6280    4.5723   -8.8365 S.o2      1 <1>         0.0824 
     19 O19        14.0327    3.2834   -9.1278 O.2       1 <1>        -0.1465 
     20 O20        13.7872    5.6750   -8.4136 O.2       1 <1>        -0.1465 
     21 N21        15.5048    5.0583  -10.1800 N.am      1 <1>        -0.1948 
     22 C22        14.8958    5.5887  -11.3518 C.ar      1 <1>         0.0514 
     23 C23        13.5053    5.5582  -11.5186 C.ar      1 <1>        -0.0533 
     24 C24        12.9174    6.1121  -12.6595 C.ar      1 <1>        -0.0482 
     25 C25        13.7146    6.6910  -13.6488 C.ar      1 <1>         0.0734 
     26 C26        15.1034    6.6977  -13.5045 C.ar      1 <1>        -0.0482 
     27 C27        15.6897    6.1510  -12.3590 C.ar      1 <1>        -0.0533 
     28 H2         21.9601    4.4790   -3.5597 H         1 <1>         0.0816 
     29 H13        12.2347    8.8913  -13.8068 H         1 <1>         0.0571 
     30 H4         17.5399    1.9643   -5.8494 H         1 <1>         0.0539 
     31 H5         15.7157    2.2220   -7.4930 H         1 <1>         0.0607 
     32 H6         16.3370    6.4723   -7.5306 H         1 <1>         0.0607 
     33 H7         18.1244    6.2308   -5.8378 H         1 <1>         0.0539 
     34 H8         16.4981    4.9505  -10.1521 H         1 <1>         0.2118 
     35 H9         12.8643    5.1040  -10.7724 H         1 <1>         0.0457 
     36 H10        11.8396    6.0952  -12.7836 H         1 <1>         0.0502 
     37 H11        15.7215    7.1290  -14.2849 H         1 <1>         0.0502 
     38 H12        16.7697    6.1685  -12.2567 H         1 <1>         0.0457 
     39 H14        12.4332    9.0343  -15.5793 H         1 <1>         0.0571 
@<TRIPOS>BOND
     1   25    1 1    
     2    5    2 1    
     3    4    3 2    
     4    1    5 1    
     5    3    6 1    
     6    4   28 1    
     7    3    7 1    
     8    7    8 2    
     9    9    7 1    
    10   10    9 1    
    11   10   11 2    
    12    4   10 1    
    13    9   12 1    
    14   12   13 ar   
    15   13   14 ar   
    16   14   15 ar   
    17   16   15 ar   
    18   17   16 ar   
    19   12   17 ar   
    20   15   18 1    
    21   18   19 2    
    22   18   20 2    
    23   18   21 1    
    24   21   22 1    
    25   22   23 ar   
    26   23   24 ar   
    27   24   25 ar   
    28   26   25 ar   
    29   27   26 ar   
    30   22   27 ar   
    31    5   29 1    
    32   13   30 1    
    33   14   31 1    
    34   16   32 1    
    35   17   33 1    
    36   21   34 1    
    37   23   35 1    
    38   24   36 1    
    39   26   37 1    
    40   27   38 1    
    41    5   39 1    
@<TRIPOS>SUBSTRUCTURE
     1 ****        4 TEMP              0 ****  ****    0 ROOT 
@<TRIPOS>NORMAL
@<TRIPOS>FF_PBC
FORCE_FIELD_SETUP_FEATURE Force Field Setup information
v1.0  0 0.000000 0.000000 0.000000 0.000000 0.000000 0.000000 NONE 0 0 0 0 1 0 0 0 0 0 0 0 0
