#	Name:			PISM00103
#	Creating user name:	baoopengkun
#	Creation time:		Sun Dec 16 14:40:13 2018

#	Modifying user name:	baoopengkun
#	Modification time:	Sun Dec 16 14:42:37 2018

@<TRIPOS>MOLECULE
PISM00103
   27    28     1     1     0
SMALL
GAST_HUCK


@<TRIPOS>ATOM
      1 Br1         4.7454   18.3962   -5.9834 Br        1 <1>        -0.0422 
      2 C2          2.8828   18.5461   -5.6994 C.2       1 <1>         0.0651 
      3 S3          1.7124   18.7432   -7.0258 S.3       1 <1>        -0.0101 
      4 C4          0.4337   18.7693   -5.7871 C.2       1 <1>         0.1697 
      5 C5          0.8781   18.6466   -4.5343 C.2       1 <1>        -0.0454 
      6 C6          2.3396   18.5123   -4.4804 C.2       1 <1>        -0.0662 
      7 S7         -1.2959   18.9393   -6.1866 S.o2      1 <1>         0.0980 
      8 O8         -1.7696   20.1778   -5.6012 O.2       1 <1>        -0.1440 
      9 O9         -1.4938   18.6968   -7.6016 O.2       1 <1>        -0.1440 
     10 N10        -1.9477   17.7088   -5.3261 N.am      1 <1>        -0.1940 
     11 C11        -1.4098   16.3925   -5.2703 C.ar      1 <1>         0.0490 
     12 C12        -1.7459   15.5465   -4.2086 C.ar      1 <1>        -0.0565 
     13 C13        -1.1900   14.2673   -4.1134 C.ar      1 <1>        -0.0534 
     14 C14        -0.2863   13.8081   -5.0791 C.ar      1 <1>         0.0982 
     15 C15         0.0299   14.6486   -6.1540 C.ar      1 <1>        -0.0534 
     16 C16        -0.5430   15.9194   -6.2615 C.ar      1 <1>        -0.0565 
     17 N17         0.2677   12.5726   -4.9724 N.pl3     1 <1>         0.0216 
     18 O18         1.0647   12.1752   -5.7952 O.2       1 <1>        -0.1306 
     19 O19        -0.0627   11.7267   -3.9022 O.3       1 <1>        -0.2429 
     20 H1          0.2318   18.6436   -3.6576 H         1 <1>         0.0439 
     21 H2          2.9064   18.3985   -3.5568 H         1 <1>         0.0463 
     22 H3         -2.7705   17.9221   -4.7987 H         1 <1>         0.2110 
     23 H4         -2.4411   15.8833   -3.4462 H         1 <1>         0.0451 
     24 H5         -1.4688   13.6352   -3.2768 H         1 <1>         0.0473 
     25 H6          0.7243   14.3212   -6.9213 H         1 <1>         0.0473 
     26 H7         -0.3084   16.5239   -7.1288 H         1 <1>         0.0451 
     27 H8         -0.4564   10.9251   -4.2283 H         1 <1>         0.2514 
@<TRIPOS>BOND
     1    2    1 1    
     2    2    3 1    
     3    3    4 1    
     4    4    5 2    
     5    5    6 1    
     6    2    6 2    
     7    4    7 1    
     8    7    8 2    
     9    7    9 2    
    10    7   10 1    
    11   10   11 1    
    12   11   12 ar   
    13   12   13 ar   
    14   13   14 ar   
    15   14   15 ar   
    16   15   16 ar   
    17   11   16 ar   
    18   14   17 1    
    19   17   18 2    
    20   17   19 1    
    21    5   20 1    
    22    6   21 1    
    23   10   22 1    
    24   12   23 1    
    25   13   24 1    
    26   15   25 1    
    27   16   26 1    
    28   19   27 1    
@<TRIPOS>SUBSTRUCTURE
     1 ****        2 TEMP              0 ****  ****    0 ROOT 
@<TRIPOS>NORMAL
@<TRIPOS>FF_PBC
FORCE_FIELD_SETUP_FEATURE Force Field Setup information
v1.0  0 0.000000 0.000000 0.000000 0.000000 0.000000 0.000000 NONE 0 0 0 0 1 0 0 0 0 0 0 0 0
