#	Name:			PISM00742
#	Creating user name:	baoopengkun
#	Creation time:		Sun Jan 20 22:20:31 2019

#	Modifying user name:	baoopengkun
#	Modification time:	Sun Jan 20 22:26:37 2019

@<TRIPOS>MOLECULE
PISM00742
   94    97     1     1     0
SMALL
GAST_HUCK


@<TRIPOS>ATOM
      1 C1          2.3385    3.4657    4.6799 C.3       1 <1>        -0.0161 
      2 C2          2.8661    2.4666    5.7502 C.3       1 <1>         0.0852 
      3 C3          4.0507    3.0922    6.5449 C.3       1 <1>         0.0868 
      4 C4          3.6012    4.4383    7.1804 C.3       1 <1>        -0.0026 
      5 C5          3.1421    5.4102    6.0579 C.3       1 <1>         0.0682 
      6 C6          1.9226    4.8635    5.2378 C.3       1 <1>        -0.0055 
      7 C7          1.5432    5.8736    4.0794 C.3       1 <1>        -0.0276 
      8 C8          2.7631    6.6330    3.4621 C.3       1 <1>        -0.0063 
      9 C9          3.2774    7.7507    4.4336 C.3       1 <1>         0.0801 
     10 O10         2.7086    7.8422    5.7609 O.3       1 <1>        -0.2763 
     11 C11         2.8075    6.7829    6.5812 C.2       1 <1>         0.2374 
     12 O12         2.5948    6.9437    7.7711 O.2       1 <1>        -0.3701 
     13 C13         0.6595    5.2820    2.9390 C.3       1 <1>        -0.0487 
     14 C14         0.0547    6.4045    2.0316 C.3       1 <1>        -0.0468 
     15 C15         1.0315    7.5882    1.6963 C.3       1 <1>        -0.0257 
     16 C16         2.4721    7.0834    1.9858 C.3       1 <1>        -0.0298 
     17 C17         3.4292    8.0822    1.2867 C.3       1 <1>        -0.0491 
     18 C18         2.5832    8.6217    0.0958 C.3       1 <1>        -0.0491 
     19 C19         1.1760    7.9444    0.1702 C.3       1 <1>        -0.0303 
     20 O20         3.2090    1.2712    5.0084 O.3       1 <1>        -0.3772 
     21 O21         5.1480    3.2388    5.6125 O.3       1 <1>        -0.3770 
     22 C22         1.4414   11.1064   -4.2875 C.3       1 <1>        -0.0417 
     23 C23         0.6595    4.7092    6.1592 C.3       1 <1>        -0.0568 
     24 C24         0.6717    8.8699    2.5171 C.3       1 <1>        -0.0590 
     25 C25         0.0433    8.7643   -0.5529 C.3       1 <1>        -0.0118 
     26 C26         0.4509    9.1169   -2.0365 C.3       1 <1>         0.0874 
     27 C27        -0.5333    9.9932   -2.9019 C.3       1 <1>         0.0874 
     28 C28         0.0143   10.4449   -4.3032 C.3       1 <1>        -0.0128 
     29 C29         3.7153    0.1801    5.8004 C.3       1 <1>         0.0369 
     30 C30         1.5521   12.3959   -3.4208 C.3       1 <1>        -0.0623 
     31 C31         1.9759   11.4170   -5.7180 C.3       1 <1>        -0.0623 
     32 C32        -1.3429    8.0709   -0.4091 C.3       1 <1>        -0.0597 
     33 O33         1.3269    8.1800   -2.7118 O.3       1 <1>        -0.3769 
     34 O34        -1.9327    9.6193   -2.9605 O.3       1 <1>        -0.3769 
     35 C35        -1.0417   11.3499   -5.0121 C.3       1 <1>        -0.0597 
     36 C36         0.7470    6.9908   -3.2670 C.3       1 <1>         0.0369 
     37 C37        -2.2841    8.4205   -3.6767 C.3       1 <1>         0.0369 
     38 C38         6.4156    3.5972    6.1970 C.3       1 <1>         0.0369 
     39 H1          1.4825    2.9828    4.1839 H         1 <1>         0.0298 
     40 H2          3.1333    3.5907    3.9289 H         1 <1>         0.0298 
     41 H3          2.0587    2.1942    6.4471 H         1 <1>         0.0622 
     42 H4          4.3310    2.4062    7.3614 H         1 <1>         0.0623 
     43 H5          4.4321    4.8887    7.7451 H         1 <1>         0.0319 
     44 H6          2.8092    4.2638    7.9206 H         1 <1>         0.0319 
     45 H7          4.0542    5.4995    5.4557 H         1 <1>         0.0560 
     46 H8          0.8999    6.6392    4.5329 H         1 <1>         0.0311 
     47 H9          3.5850    5.9099    3.3279 H         1 <1>         0.0332 
     48 H10         2.9991    8.7385    4.0518 H         1 <1>         0.0616 
     49 H11         4.3780    7.7431    4.5015 H         1 <1>         0.0616 
     50 H12        -0.1827    4.6928    3.3318 H         1 <1>         0.0268 
     51 H13         1.2658    4.5861    2.3377 H         1 <1>         0.0268 
     52 H14        -0.8331    6.7995    2.5525 H         1 <1>         0.0271 
     53 H15        -0.2972    5.9095    1.1130 H         1 <1>         0.0271 
     54 H16         2.5866    6.1765    1.3606 H         1 <1>         0.0310 
     55 H17         4.3563    7.5851    0.9520 H         1 <1>         0.0268 
     56 H18         3.7318    8.9200    1.9296 H         1 <1>         0.0268 
     57 H19         3.0860    8.4084   -0.8621 H         1 <1>         0.0268 
     58 H20         2.4879    9.7161    0.1865 H         1 <1>         0.0268 
     59 H21         1.2518    6.9930   -0.3818 H         1 <1>         0.0310 
     60 H22         2.1549   10.3659   -3.8876 H         1 <1>         0.0299 
     61 H23        -0.2082    4.3513    5.5904 H         1 <1>         0.0237 
     62 H24         0.3817    5.6736    6.6106 H         1 <1>         0.0237 
     63 H25         0.7794    4.0046    6.9880 H         1 <1>         0.0237 
     64 H26        -0.3375    9.2222    2.2661 H         1 <1>         0.0235 
     65 H27         1.3666    9.6978    2.3241 H         1 <1>         0.0235 
     66 H28         0.6657    8.6897    3.5971 H         1 <1>         0.0235 
     67 H29        -0.0708    9.7286   -0.0273 H         1 <1>         0.0327 
     68 H30         1.2593    9.8376   -1.8502 H         1 <1>         0.0624 
     69 H31        -0.6755   10.9229   -2.3277 H         1 <1>         0.0624 
     70 H32         0.1171    9.5349   -4.9130 H         1 <1>         0.0326 
     71 H33         3.0367   -0.0812    6.6271 H         1 <1>         0.0524 
     72 H34         4.7193    0.3951    6.1942 H         1 <1>         0.0524 
     73 H35         3.7973   -0.6910    5.1335 H         1 <1>         0.0524 
     74 H36         0.9071   13.1948   -3.8134 H         1 <1>         0.0232 
     75 H37         2.5892   12.7658   -3.4369 H         1 <1>         0.0232 
     76 H38         1.2870   12.2197   -2.3695 H         1 <1>         0.0232 
     77 H39         1.8431   10.5499   -6.3834 H         1 <1>         0.0232 
     78 H40         3.0517   11.6525   -5.6801 H         1 <1>         0.0232 
     79 H41         1.4687   12.2859   -6.1617 H         1 <1>         0.0232 
     80 H42        -2.1477    8.6675   -0.8522 H         1 <1>         0.0233 
     81 H43        -1.6221    7.9666    0.6451 H         1 <1>         0.0233 
     82 H44        -1.3470    7.0706   -0.8590 H         1 <1>         0.0233 
     83 H45        -0.7450   11.5948   -6.0411 H         1 <1>         0.0233 
     84 H46        -1.1926   12.2858   -4.4562 H         1 <1>         0.0233 
     85 H47        -2.0189   10.8519   -5.0851 H         1 <1>         0.0233 
     86 H48         0.1496    7.2086   -4.1596 H         1 <1>         0.0524 
     87 H49         0.1638    6.4103   -2.5416 H         1 <1>         0.0524 
     88 H50         1.5914    6.3649   -3.5907 H         1 <1>         0.0524 
     89 H51        -1.9459    8.4077   -4.7219 H         1 <1>         0.0524 
     90 H52        -3.3833    8.3881   -3.6871 H         1 <1>         0.0524 
     91 H53        -1.9439    7.5165   -3.1617 H         1 <1>         0.0524 
     92 H54         6.7178    2.8875    6.9825 H         1 <1>         0.0524 
     93 H55         6.4271    4.6200    6.5988 H         1 <1>         0.0524 
     94 H56         7.1608    3.5497    5.3892 H         1 <1>         0.0524 
@<TRIPOS>BOND
     1    1    2 1    
     2    2    3 1    
     3    4    3 1    
     4    5    4 1    
     5    6    5 1    
     6    6    1 1    
     7    7    6 1    
     8    8    7 1    
     9    8    9 1    
    10    9   10 1    
    11   10   11 1    
    12   11   12 2    
    13   11    5 1    
    14   13    7 1    
    15   14   13 1    
    16   15   14 1    
    17   15   16 1    
    18   16    8 1    
    19   16   17 1    
    20   18   17 1    
    21   19   18 1    
    22   19   15 1    
    23    2   20 1    
    24    3   21 1    
    25   28   22 1    
    26    6   23 1    
    27   15   24 1    
    28   25   19 1    
    29   26   25 1    
    30   27   26 1    
    31   27   28 1    
    32   20   29 1    
    33   22   30 1    
    34   22   31 1    
    35   25   32 1    
    36   26   33 1    
    37   27   34 1    
    38   28   35 1    
    39   33   36 1    
    40   34   37 1    
    41   21   38 1    
    42    1   39 1    
    43    1   40 1    
    44    2   41 1    
    45    3   42 1    
    46    4   43 1    
    47    4   44 1    
    48    5   45 1    
    49    7   46 1    
    50    8   47 1    
    51    9   48 1    
    52    9   49 1    
    53   13   50 1    
    54   13   51 1    
    55   14   52 1    
    56   14   53 1    
    57   16   54 1    
    58   17   55 1    
    59   17   56 1    
    60   18   57 1    
    61   18   58 1    
    62   19   59 1    
    63   22   60 1    
    64   23   61 1    
    65   23   62 1    
    66   23   63 1    
    67   24   64 1    
    68   24   65 1    
    69   24   66 1    
    70   25   67 1    
    71   26   68 1    
    72   27   69 1    
    73   28   70 1    
    74   29   71 1    
    75   29   72 1    
    76   29   73 1    
    77   30   74 1    
    78   30   75 1    
    79   30   76 1    
    80   31   77 1    
    81   31   78 1    
    82   31   79 1    
    83   32   80 1    
    84   32   81 1    
    85   32   82 1    
    86   35   83 1    
    87   35   84 1    
    88   35   85 1    
    89   36   86 1    
    90   36   87 1    
    91   36   88 1    
    92   37   89 1    
    93   37   90 1    
    94   37   91 1    
    95   38   92 1    
    96   38   93 1    
    97   38   94 1    
@<TRIPOS>SUBSTRUCTURE
     1 ****        2 TEMP              0 ****  ****    0 ROOT 
@<TRIPOS>NORMAL
@<TRIPOS>FF_PBC
FORCE_FIELD_SETUP_FEATURE Force Field Setup information
v1.0  0 0.000000 0.000000 0.000000 0.000000 0.000000 0.000000 NONE 0 0 0 0 1 0 0 0 0 0 0 0 0
