#	Name:			PISM00167
#	Creating user name:	14062
#	Creation time:		Sun Mar 31 14:03:24 2019

#	Modifying user name:	14062
#	Modification time:	Sun Mar 31 14:08:24 2019

@<TRIPOS>MOLECULE
PISM00167
   31    33     2     1     0
SMALL
GAST_HUCK


@<TRIPOS>ATOM
      1 H1          3.6266    2.5370   -6.1155 H         2 CN          0.0518 
      2 C2          4.1424    3.9780   -8.8759 C.2       2 CN          0.2459 
      3 O3          2.8736    4.3190   -9.1146 O.3       2 CN         -0.1762 
      4 C4          1.9774    4.3546   -8.1089 C.2       2 CN          0.2406 
      5 C5          2.3185    4.0254   -6.8470 C.2       2 CN          0.1043 
      6 C6          3.7067    3.5818   -6.4547 C.3       2 CN          0.0301 
      7 C7          4.5728    3.6267   -7.6679 C.2       2 CN          0.0159 
      8 C8          6.0020    3.3301   -7.8171 C.2       2 CN         -0.0158 
      9 N9          6.2527    3.5343   -9.0445 N.2       2 CN         -0.2428 
     10 N10         5.1385    3.9287   -9.7063 N.pl3     2 CN         -0.1962 
     11 C           1.3331    4.0835   -5.7987 C.1       2 CN          0.0105 
     12 N12         0.7714    4.7310   -8.4464 N.pl3     2 CN         -0.2822 
     13 N           0.5300    4.1364   -4.9689 N.1       2 CN         -0.4172 
     14 C14         4.3761    4.4491   -5.3754 C.ar      2 CN         -0.0189 
     15 C15         5.2789    3.8445   -4.4918 C.ar      2 CN         -0.0423 
     16 C16         5.8561    4.5751   -3.4476 C.ar      2 CN          0.0667 
     17 C17         5.4655    5.8984   -3.2365 C.ar      2 CN         -0.0524 
     18 C18         4.5965    6.5177   -4.1368 C.ar      2 CN         -0.0524 
     19 C19         4.1094    5.8199   -5.2478 C.ar      2 CN          0.1223 
     20 O20         6.8158    4.0024   -2.6122 O.3       2 CN         -0.3436 
     21 N           3.4034    6.4933   -6.1864 N.pl3     1 NO2         0.1111 
     22 O           3.7496    6.3750   -7.3405 O.2       1 NO2        -0.1177 
     23 O           2.5098    7.2166   -5.8078 O.2       1 NO2        -0.1177 
     24 H2          6.6971    3.0049   -7.0438 H         2 CN          0.0583 
     25 H3          5.0926    4.1623  -10.7086 H         2 CN          0.2521 
     26 H4          0.5642    4.9696   -9.4277 H         2 CN          0.1933 
     27 H5          0.0110    4.8002   -7.7520 H         2 CN          0.1933 
     28 H6          5.5379    2.7970   -4.6119 H         2 CN          0.0442 
     29 H7          5.8470    6.4413   -2.3781 H         2 CN          0.0446 
     30 H8          4.3062    7.5511   -3.9764 H         2 CN          0.0467 
     31 H9          7.3854    3.3972   -3.0752 H         2 CN          0.2436 
@<TRIPOS>BOND
     1    6    1 1    
     2    3    2 1    
     3    4    3 1    
     4    5    4 2    
     5    5    6 1    
     6    6    7 1    
     7    7    8 1    
     8    8    9 2    
     9    9   10 1    
    10    2   10 1    
    11   11   13 3    
    12    4   12 1    
    13   11    5 1    
    14    6   14 1    
    15   14   15 ar   
    16   15   16 ar   
    17   16   17 ar   
    18   17   18 ar   
    19   18   19 ar   
    20   14   19 ar   
    21   16   20 1    
    22   21   22 2    
    23   21   23 2    
    24   19   21 1    
    25    2    7 2    
    26    8   24 1    
    27   10   25 1    
    28   12   26 1    
    29   12   27 1    
    30   15   28 1    
    31   17   29 1    
    32   18   30 1    
    33   20   31 1    
@<TRIPOS>SUBSTRUCTURE
     1 NO2        21 PERM              0 ****  ****    1  
     2 CN         11 PERM              0 ****  ****    1 ROOT 
@<TRIPOS>NORMAL
@<TRIPOS>FF_PBC
FORCE_FIELD_SETUP_FEATURE Force Field Setup information
v1.0  0 0.000000 0.000000 0.000000 0.000000 0.000000 0.000000 NONE 0 0 0 0 1 0 0 0 0 0 0 0 0
