#	Name:			PISM01009
#	Creating user name:	malab
#	Creation time:		Mon Jul 01 22:05:46 2019

#	Modifying user name:	malab
#	Modification time:	Mon Jul 01 22:08:14 2019

@<TRIPOS>MOLECULE
PISM01009
   23    24     1     1     0
SMALL
GAST_HUCK


@<TRIPOS>ATOM
      1 C1         12.2536   18.1722   28.0033 C.ar      1 <1>        -0.0276 
      2 C2         11.9548   19.4443   28.4995 C.ar      1 <1>         0.0039 
      3 C3         10.6437   19.9241   28.4433 C.ar      1 <1>        -0.0635 
      4 C4          9.6397   19.1379   27.8719 C.ar      1 <1>        -0.0683 
      5 C5          9.9468   17.8748   27.3572 C.ar      1 <1>        -0.0345 
      6 C6         11.2506   17.3708   27.4463 C.ar      1 <1>         0.0725 
      7 Br7        13.2954   20.4921   29.2326 Br        1 <1>        -0.0528 
      8 H8         10.4057   20.9053   28.8417 H         1 <1>         0.0548 
      9 N9         11.5618   16.1298   26.9960 N.pl3     1 <1>        -0.2308 
     10 C10        10.8054   15.0946   27.2367 C.2       1 <1>         0.2232 
     11 N11         9.7337   15.1331   27.9064 N.2       1 <1>        -0.2984 
     12 S12        11.1830   13.4496   26.6593 S.3       1 <1>         0.0961 
     13 C13         9.6734   12.9056   27.4703 C.2       1 <1>         0.0796 
     14 C14         9.0175   13.8951   28.0834 C.2       1 <1>         0.0820 
     15 C15         7.7265   13.7273   28.8381 C.3       1 <1>         0.3570 
     16 F16         7.9668   12.9855   29.9521 F         1 <1>        -0.2455 
     17 F17         7.2040   14.9320   29.1920 F         1 <1>        -0.2455 
     18 F18         6.8450   13.0638   28.0425 F         1 <1>        -0.2455 
     19 H1         13.2726   17.8043   28.0568 H         1 <1>         0.0567 
     20 H2          8.6202   19.5095   27.8256 H         1 <1>         0.0595 
     21 H3          9.1631   17.2956   26.8802 H         1 <1>         0.0563 
     22 H4         12.4361   15.9948   26.4679 H         1 <1>         0.2238 
     23 H5          9.3261   11.8733   27.4638 H         1 <1>         0.1470 
@<TRIPOS>BOND
     1    2    1 ar   
     2    2    3 ar   
     3    3    4 ar   
     4    4    5 ar   
     5    5    6 ar   
     6    1    6 ar   
     7    2    7 1    
     8    3    8 1    
     9    6    9 1    
    10    9   10 1    
    11   10   11 2    
    12   10   12 1    
    13   12   13 1    
    14   13   14 2    
    15   11   14 1    
    16   14   15 1    
    17   15   16 1    
    18   15   17 1    
    19   15   18 1    
    20    1   19 1    
    21    4   20 1    
    22    5   21 1    
    23    9   22 1    
    24   13   23 1    
@<TRIPOS>SUBSTRUCTURE
     1 ****        2 TEMP              0 ****  ****    0 ROOT 
@<TRIPOS>NORMAL
@<TRIPOS>FF_PBC
FORCE_FIELD_SETUP_FEATURE Force Field Setup information
v1.0  0 0.000000 0.000000 0.000000 0.000000 0.000000 0.000000 NONE 0 0 0 0 1 0 0 0 0 0 0 0 0
