#	Name:			PISM00215
#	Creating user name:	14062
#	Creation time:		Mon Apr 01 21:34:17 2019

#	Modifying user name:	14062
#	Modification time:	Mon Apr 01 21:56:34 2019

@<TRIPOS>MOLECULE
PISM00215
   43    45     1     2     0
SMALL
GAST_HUCK


@<TRIPOS>ATOM
      1 N1         -2.2297    3.1183    4.1785 N.pl3     1 <1>        -0.2884 
      2 C2         -3.5553    2.8848    4.2421 C.ar      1 <1>         0.0606 
      3 C3         -3.9133    2.0088    3.2367 C.ar      1 <1>        -0.0189 
      4 C4         -5.2267    1.5799    3.0488 C.ar      1 <1>        -0.0745 
      5 C5         -6.1905    2.1105    3.9153 C.ar      1 <1>        -0.0792 
      6 C6         -5.8342    2.9961    4.9458 C.ar      1 <1>        -0.0767 
      7 C7         -2.6020    1.7461    2.5411 C.2       1 <1>        -0.0209 
      8 C8         -1.6685    2.4653    3.1923 C.2       1 <1>         0.0197 
      9 C9         -4.5019    3.3979    5.1297 C.ar      1 <1>        -0.0442 
     10 C10        -2.4499    0.8468    1.3420 C.3       1 <1>         0.0912 
     11 C11        -2.5394   -0.6402    1.6219 C.2       1 <1>         0.2417 
     12 O12        -2.7507   -1.4037    0.6936 O.2       1 <1>        -0.3685 
     13 O13        -2.3886   -1.1364    2.8577 O.3       1 <1>        -0.2916 
     14 C14        -1.1879    1.1459    0.4946 C.3       1 <1>         0.0462 
     15 C15         0.0879    0.5804    1.0520 C.2       1 <1>         0.1302 
     16 O16         0.1664    0.1994    2.2061 O.2       1 <1>        -0.3823 
     17 C17         1.2805    0.4768    0.1287 C.ar      1 <1>         0.0276 
     18 C18         2.2006    1.5273    0.0542 C.ar      1 <1>        -0.0483 
     19 C19         3.2579    1.4694   -0.8623 C.ar      1 <1>        -0.0469 
     20 C20         3.3771    0.3512   -1.6945 C.ar      1 <1>        -0.0623 
     21 C21         2.4742   -0.7101   -1.5996 C.ar      1 <1>        -0.0606 
     22 C22         1.4290   -0.6648   -0.6697 C.ar      1 <1>        -0.0332 
     23 C23         0.4609   -1.8479   -0.5329 C.3       1 <1>        -0.0304 
     24 C24         4.2819    2.6085   -0.9778 C.3       1 <1>        -0.0332 
     25 H1         -1.7249    3.7401    4.8277 H         1 <1>         0.2219 
     26 H2         -5.4855    0.8724    2.2688 H         1 <1>         0.0540 
     27 H3         -7.2318    1.8321    3.7884 H         1 <1>         0.0510 
     28 H4         -6.6025    3.3804    5.6112 H         1 <1>         0.0530 
     29 H5         -0.6059    2.5167    2.9539 H         1 <1>         0.0804 
     30 H6         -4.2181    4.0791    5.9245 H         1 <1>         0.0541 
     31 H7         -3.3062    1.0907    0.6924 H         1 <1>         0.0659 
     32 H8         -2.1548   -0.5071    3.5313 H         1 <1>         0.2540 
     33 H9         -1.0581    2.2324    0.3724 H         1 <1>         0.0526 
     34 H10        -1.3330    0.7025   -0.5047 H         1 <1>         0.0526 
     35 H11         2.0769    2.3924    0.7004 H         1 <1>         0.0591 
     36 H12         4.1788    0.3076   -2.4218 H         1 <1>         0.0579 
     37 H13         2.5865   -1.5696   -2.2526 H         1 <1>         0.0553 
     38 H14        -0.4504   -1.6347   -1.1134 H         1 <1>         0.0393 
     39 H15         0.1819   -2.0177    0.5200 H         1 <1>         0.0393 
     40 H16         0.9144   -2.7764   -0.9162 H         1 <1>         0.0393 
     41 H17         5.2575    2.2415   -0.6193 H         1 <1>         0.0378 
     42 H18         3.9923    3.4922   -0.3839 H         1 <1>         0.0378 
     43 H19         4.3769    2.9111   -2.0340 H         1 <1>         0.0378 
@<TRIPOS>BOND
     1    8    1 1    
     2    1    2 1    
     3    2    3 ar   
     4    3    7 1    
     5    3    4 ar   
     6    4    5 ar   
     7    5    6 ar   
     8    7    8 2    
     9    6    9 ar   
    10    2    9 ar   
    11    7   10 1    
    12   10   11 1    
    13   11   12 2    
    14   11   13 1    
    15   10   14 1    
    16   14   15 1    
    17   15   16 2    
    18   15   17 1    
    19   17   18 ar   
    20   18   19 ar   
    21   19   20 ar   
    22   20   21 ar   
    23   21   22 ar   
    24   17   22 ar   
    25   22   23 1    
    26   19   24 1    
    27    1   25 1    
    28    4   26 1    
    29    5   27 1    
    30    6   28 1    
    31    8   29 1    
    32    9   30 1    
    33   10   31 1    
    34   13   32 1    
    35   14   33 1    
    36   14   34 1    
    37   18   35 1    
    38   20   36 1    
    39   21   37 1    
    40   23   38 1    
    41   23   39 1    
    42   23   40 1    
    43   24   41 1    
    44   24   42 1    
    45   24   43 1    
@<TRIPOS>SUBSTRUCTURE
     1 ****        7 TEMP              0 ****  ****    0 ROOT 
@<TRIPOS>NORMAL
@<TRIPOS>FF_PBC
FORCE_FIELD_SETUP_FEATURE Force Field Setup information
v1.0  0 0.000000 0.000000 0.000000 0.000000 0.000000 0.000000 NONE 0 0 0 0 1 0 0 0 0 0 0 0 0
@<TRIPOS>RENDERING_ATTRS
ANTIALIASED_LINES 
1,2,3,4,5,6,7,8,9,10,11,12,13,14,15,16,17,18,19,20,21,22,23,24
