#	Name:			PISM00173
#	Creating user name:	14062
#	Creation time:		Sun Mar 31 15:38:02 2019

#	Modifying user name:	14062
#	Modification time:	Sun Mar 31 15:50:27 2019

@<TRIPOS>MOLECULE
PISM00173
   26    27     1     1     0
SMALL
GAST_HUCK


@<TRIPOS>ATOM
      1 C1         -0.1141    8.1683  -10.0207 C.ar      1 <1>        -0.0276 
      2 C2          0.7080    7.0462  -10.1652 C.ar      1 <1>        -0.0530 
      3 C3          0.7994    6.0922   -9.1423 C.ar      1 <1>         0.0129 
      4 C4          0.0447    6.2816   -7.9773 C.ar      1 <1>        -0.0530 
      5 C5         -0.7796    7.4012   -7.8307 C.ar      1 <1>        -0.0276 
      6 C6         -0.8589    8.3478   -8.8536 C.ar      1 <1>         0.1327 
      7 C7          1.6811    4.8617   -9.2421 C.2       1 <1>         0.1277 
      8 C8          2.4796    4.5775  -10.2751 C.2       1 <1>        -0.0416 
      9 C9          3.0966    3.3125   -9.8834 C.2       1 <1>        -0.0423 
     10 C10         2.5606    3.0603   -8.6864 C.2       1 <1>         0.1245 
     11 O11         1.6896    3.9718   -8.2437 O.3       1 <1>        -0.2503 
     12 C12         2.8554    1.8817   -7.8465 C.2       1 <1>        -0.0142 
     13 C13         3.6934    0.8804   -8.1474 C.2       1 <1>         0.0130 
     14 C14         3.9379   -0.2673   -7.2541 C.2       1 <1>         0.2366 
     15 O15         3.3658   -0.3376   -6.1777 O.2       1 <1>        -0.3707 
     16 O16         4.7862   -1.2257   -7.6286 O.3       1 <1>        -0.2983 
     17 F17        -1.6406    9.4157   -8.7171 F         1 <1>        -0.1830 
     18 H1         -0.1787    8.9063  -10.8137 H         1 <1>         0.0605 
     19 H2          1.2676    6.9367  -11.0856 H         1 <1>         0.0611 
     20 H3          0.0926    5.5568   -7.1706 H         1 <1>         0.0611 
     21 H4         -1.3601    7.5408   -6.9246 H         1 <1>         0.0605 
     22 H5          2.6732    5.1074  -11.2053 H         1 <1>         0.0424 
     23 H6          3.8201    2.7470  -10.4678 H         1 <1>         0.0474 
     24 H7          2.3250    1.8495   -6.8945 H         1 <1>         0.0735 
     25 H8          4.2440    0.8682   -9.0853 H         1 <1>         0.0570 
     26 H9          4.8569   -1.9066   -6.9684 H         1 <1>         0.2509 
@<TRIPOS>BOND
     1    2    1 ar   
     2    2    3 ar   
     3    3    4 ar   
     4    4    5 ar   
     5    1    6 ar   
     6    5    6 ar   
     7    3    7 1    
     8    7    8 2    
     9    8    9 1    
    10   10    9 2    
    11   11   10 1    
    12    7   11 1    
    13   10   12 1    
    14   12   13 2    
    15   13   14 1    
    16   14   15 2    
    17   14   16 1    
    18    6   17 1    
    19    1   18 1    
    20    2   19 1    
    21    4   20 1    
    22    5   21 1    
    23    8   22 1    
    24    9   23 1    
    25   12   24 1    
    26   13   25 1    
    27   16   26 1    
@<TRIPOS>SUBSTRUCTURE
     1 ****        2 TEMP              0 ****  ****    0 ROOT 
@<TRIPOS>NORMAL
@<TRIPOS>FF_PBC
FORCE_FIELD_SETUP_FEATURE Force Field Setup information
v1.0  0 0.000000 0.000000 0.000000 0.000000 0.000000 0.000000 NONE 0 0 0 0 1 0 0 0 0 0 0 0 0
