#	Name:			PISM00011
#	Creating user name:	baoopengkun
#	Creation time:		Tue Dec 11 21:40:22 2018

#	Modifying user name:	baoopengkun
#	Modification time:	Tue Dec 11 21:43:57 2018

@<TRIPOS>MOLECULE
PISM00011
   42    44     1     1     0
SMALL
GAST_HUCK


@<TRIPOS>ATOM
      1 C1         13.6910  -11.6883   -9.4702 C.ar      1 <1>        -0.0633 
      2 C2         13.3249  -11.9310  -10.8009 C.ar      1 <1>        -0.0594 
      3 C3         13.7800  -11.0824  -11.8205 C.ar      1 <1>        -0.0740 
      4 C4         14.6007   -9.9860  -11.5327 C.ar      1 <1>        -0.0732 
      5 C5         14.9581   -9.7572  -10.2037 C.ar      1 <1>        -0.0450 
      6 C6         14.5154  -10.5971   -9.1896 C.ar      1 <1>        -0.0213 
      7 C7         12.4272  -13.1197  -11.1646 C.3       1 <1>        -0.0358 
      8 C8         15.0482  -10.1402   -7.8369 C.3       1 <1>         0.0776 
      9 C9         15.4054   -8.6561   -8.1500 C.3       1 <1>        -0.0036 
     10 C10        15.8242   -8.6353   -9.6483 C.3       1 <1>        -0.0182 
     11 C11        16.4871   -8.0778   -7.2027 C.3       1 <1>        -0.0570 
     12 N12        14.0733  -10.3131   -6.7626 N.pl3     1 <1>        -0.2740 
     13 C13        13.9884  -11.4755   -6.0789 C.ar      1 <1>         0.1808 
     14 N14        13.1078  -11.5820   -5.0655 N.ar      1 <1>        -0.2438 
     15 C15        12.9803  -12.7455   -4.3975 C.ar      1 <1>         0.1187 
     16 N16        13.7476  -13.7996   -4.7367 N.ar      1 <1>        -0.2441 
     17 C17        14.6413  -13.6869   -5.7367 C.ar      1 <1>         0.1762 
     18 N18        14.7684  -12.5244   -6.4023 N.ar      1 <1>        -0.2276 
     19 N19        15.4110  -14.7417   -6.0728 N.pl3     1 <1>        -0.3014 
     20 C20        11.9645  -12.8660   -3.2603 C.3       1 <1>         0.1642 
     21 C21        10.6827  -13.5593   -3.7771 C.3       1 <1>        -0.0168 
     22 F22        12.4801  -13.5867   -2.2251 F         1 <1>        -0.2215 
     23 H23        11.7315  -11.8548   -2.8913 H         1 <1>         0.0908 
     24 H1         13.3456  -12.3301   -8.6679 H         1 <1>         0.0478 
     25 H2         13.4932  -11.2758  -12.8493 H         1 <1>         0.0482 
     26 H3         14.9528   -9.3278  -12.3200 H         1 <1>         0.0521 
     27 H4         12.1589  -13.7197  -10.2821 H         1 <1>         0.0377 
     28 H5         12.9548  -13.7664  -11.8816 H         1 <1>         0.0377 
     29 H6         11.5031  -12.7453  -11.6299 H         1 <1>         0.0377 
     30 H7         15.9744  -10.7070   -7.6457 H         1 <1>         0.0717 
     31 H8         14.4849   -8.0520   -8.0648 H         1 <1>         0.0361 
     32 H9         16.8792   -8.9209   -9.7808 H         1 <1>         0.0403 
     33 H10        15.6345   -7.6670  -10.1381 H         1 <1>         0.0403 
     34 H11        16.1326   -8.1205   -6.1611 H         1 <1>         0.0236 
     35 H12        16.6953   -7.0290   -7.4649 H         1 <1>         0.0236 
     36 H13        17.4223   -8.6529   -7.2806 H         1 <1>         0.0236 
     37 H14        13.4708   -9.5287   -6.4768 H         1 <1>         0.1925 
     38 H15        15.3174  -15.6295   -5.5610 H         1 <1>         0.1861 
     39 H16        16.0917  -14.6578   -6.8397 H         1 <1>         0.1861 
     40 H17        10.2440  -12.9831   -4.6066 H         1 <1>         0.0289 
     41 H18         9.9439  -13.6373   -2.9647 H         1 <1>         0.0289 
     42 H19        10.9259  -14.5719   -4.1342 H         1 <1>         0.0289 
@<TRIPOS>BOND
     1    2    1 ar   
     2    2    3 ar   
     3    3    4 ar   
     4    4    5 ar   
     5    5    6 ar   
     6    1    6 ar   
     7    2    7 1    
     8    6    8 1    
     9    8    9 1    
    10    9   10 1    
    11    5   10 1    
    12    9   11 1    
    13    8   12 1    
    14   12   13 1    
    15   13   14 ar   
    16   14   15 ar   
    17   15   16 ar   
    18   16   17 ar   
    19   17   18 ar   
    20   13   18 ar   
    21   17   19 1    
    22   15   20 1    
    23   20   21 1    
    24   20   22 1    
    25   20   23 1    
    26    1   24 1    
    27    3   25 1    
    28    4   26 1    
    29    7   27 1    
    30    7   28 1    
    31    7   29 1    
    32    8   30 1    
    33    9   31 1    
    34   10   32 1    
    35   10   33 1    
    36   11   34 1    
    37   11   35 1    
    38   11   36 1    
    39   12   37 1    
    40   19   38 1    
    41   19   39 1    
    42   21   40 1    
    43   21   41 1    
    44   21   42 1    
@<TRIPOS>SUBSTRUCTURE
     1 ****        2 TEMP              0 ****  ****    0 ROOT 
@<TRIPOS>NORMAL
@<TRIPOS>FF_PBC
FORCE_FIELD_SETUP_FEATURE Force Field Setup information
v1.0  0 0.000000 0.000000 0.000000 0.000000 0.000000 0.000000 NONE 0 0 0 0 1 0 0 0 0 0 0 0 0
