#	Name:			PISM00997
#	Creating user name:	baoopengkun
#	Creation time:		Fri Jan 11 22:05:04 2019

#	Modifying user name:	baoopengkun
#	Modification time:	Fri Jan 11 22:41:28 2019

@<TRIPOS>MOLECULE
PISM00997
   43    45     1     1     0
SMALL
GAST_HUCK


@<TRIPOS>ATOM
      1 S1         12.9267    7.4188  -15.0494 S.3       1 <1>        -0.1324 
      2 C2         13.5201    6.7480  -16.6378 C.3       1 <1>        -0.0052 
      3 C3         24.8116    9.5589   -6.7683 C.2       1 <1>         0.0412 
      4 C4         24.8091   10.4279   -7.7830 C.2       1 <1>         0.0412 
      5 C5         12.6526    9.1798  -15.4321 C.3       1 <1>        -0.0052 
      6 H1         13.9032    5.7294  -16.4785 H         1 <1>         0.0377 
      7 C7         23.5639    8.7926   -6.8878 C.2       1 <1>         0.2576 
      8 O8         23.2314    7.9100   -6.1154 O.2       1 <1>        -0.3492 
      9 N9         22.9144    9.2283   -7.9256 N.pl3     1 <1>        -0.1377 
     10 C10        23.5610   10.1866   -8.5194 C.2       1 <1>         0.2576 
     11 O11        23.2307   10.8005   -9.5197 O.2       1 <1>        -0.3492 
     12 C12        21.7166    8.7460   -8.3386 C.ar      1 <1>         0.0861 
     13 C13        21.4892    7.3661   -8.4022 C.ar      1 <1>        -0.0343 
     14 C14        20.2581    6.8692   -8.8406 C.ar      1 <1>        -0.0428 
     15 C15        19.2450    7.7489   -9.2323 C.ar      1 <1>         0.1156 
     16 C16        19.4643    9.1272   -9.1628 C.ar      1 <1>        -0.0428 
     17 C17        20.6905    9.6227   -8.7101 C.ar      1 <1>        -0.0343 
     18 S18        17.6906    7.1399   -9.8497 S.o2      1 <1>         0.1239 
     19 O19        17.6553    5.6974   -9.7236 O.2       1 <1>        -0.1335 
     20 O20        16.6273    7.9370   -9.2728 O.2       1 <1>        -0.1335 
     21 N21        17.7839    7.5115  -11.4846 N.am      1 <1>        -0.1079 
     22 C22        16.6420    7.4726  -12.3351 C.ar      1 <1>         0.1841 
     23 C23        15.4529    6.8605  -11.9182 C.ar      1 <1>         0.0339 
     24 C24        14.3306    6.8542  -12.7520 C.ar      1 <1>         0.0048 
     25 C25        14.3815    7.4433  -14.0180 C.ar      1 <1>         0.0607 
     26 C26        15.5713    8.0419  -14.4461 C.ar      1 <1>         0.0048 
     27 C27        16.6926    8.0507  -13.6098 C.ar      1 <1>         0.0339 
     28 H2         14.3120    7.3696  -17.0779 H         1 <1>         0.0377 
     29 H3         12.6736    6.7066  -17.3388 H         1 <1>         0.0377 
     30 H4         25.5737    9.4324   -6.0009 H         1 <1>         0.0816 
     31 H5         25.5686   11.1686   -8.0284 H         1 <1>         0.0816 
     32 H6         11.7879    9.2644  -16.1068 H         1 <1>         0.0377 
     33 H7         13.5279    9.6333  -15.9177 H         1 <1>         0.0377 
     34 H8         12.4341    9.7206  -14.4994 H         1 <1>         0.0377 
     35 H9         22.2720    6.6702   -8.1180 H         1 <1>         0.0539 
     36 H10        20.0922    5.7976   -8.8775 H         1 <1>         0.0608 
     37 H11        18.6785    9.8144   -9.4597 H         1 <1>         0.0608 
     38 H12        20.8384   10.6958   -8.6429 H         1 <1>         0.0539 
     39 H13        18.6819    7.7528  -11.8555 H         1 <1>         0.3154 
     40 H14        15.3821    6.3791  -10.9492 H         1 <1>         0.0879 
     41 H15        13.4095    6.3872  -12.4161 H         1 <1>         0.0764 
     42 H16        15.6396    8.5052  -15.4235 H         1 <1>         0.0764 
     43 H17        17.6087    8.5168  -13.9596 H         1 <1>         0.0879 
@<TRIPOS>BOND
     1   25    1 1    
     2    1    2 1    
     3    4    3 2    
     4    1    5 1    
     5    2    6 1    
     6    2   28 1    
     7    3    7 1    
     8    7    8 2    
     9    9    7 1    
    10   10    9 1    
    11   10   11 2    
    12    4   10 1    
    13    9   12 1    
    14   12   13 ar   
    15   13   14 ar   
    16   14   15 ar   
    17   16   15 ar   
    18   17   16 ar   
    19   12   17 ar   
    20   15   18 1    
    21   18   19 2    
    22   18   20 2    
    23   18   21 1    
    24   21   22 1    
    25   22   23 ar   
    26   23   24 ar   
    27   24   25 ar   
    28   26   25 ar   
    29   27   26 ar   
    30   22   27 ar   
    31    2   29 1    
    32    3   30 1    
    33    4   31 1    
    34    5   32 1    
    35    5   33 1    
    36    5   34 1    
    37   13   35 1    
    38   14   36 1    
    39   16   37 1    
    40   17   38 1    
    41   21   39 1    
    42   23   40 1    
    43   24   41 1    
    44   26   42 1    
    45   27   43 1    
@<TRIPOS>SUBSTRUCTURE
     1 ****        4 TEMP              0 ****  ****    0 ROOT 
@<TRIPOS>NORMAL
@<TRIPOS>FF_PBC
FORCE_FIELD_SETUP_FEATURE Force Field Setup information
v1.0  0 0.000000 0.000000 0.000000 0.000000 0.000000 0.000000 NONE 0 0 0 0 1 0 0 0 0 0 0 0 0
