#	Name:			PISM00181
#	Creating user name:	14062
#	Creation time:		Mon Apr 01 17:32:28 2019

#	Modifying user name:	14062
#	Modification time:	Mon Apr 01 17:33:37 2019

@<TRIPOS>MOLECULE
PISM00181
  106   109     1     2     0
SMALL
GAST_HUCK


@<TRIPOS>ATOM
      1 C1          4.0464    5.4706   -6.1949 C.2       1 <1>        -0.0173 
      2 C2          9.7378    9.3094   -6.5611 C.2       1 <1>         0.2333 
      3 C3          6.3045    5.2607   -5.0518 C.3       1 <1>         0.1307 
      4 C4          6.9723    5.7350   -6.4068 C.3       1 <1>         0.1200 
      5 C5          5.9389    6.2735   -7.4333 C.3       1 <1>         0.0164 
      6 C6          4.7888    5.2411   -7.4853 C.3       1 <1>         0.1213 
      7 C7          4.1619    5.5986   -8.8120 C.2       1 <1>         0.1138 
      8 C8          5.1011    6.3205   -9.7406 C.3       1 <1>         0.0206 
      9 C9          6.4173    6.2827   -8.9174 C.3       1 <1>        -0.0089 
     10 C10         2.9041    6.1796   -6.1805 C.2       1 <1>        -0.0389 
     11 O11         3.0083    5.3368   -9.1107 O.2       1 <1>        -0.3591 
     12 C12         4.1857    3.5940   -4.2185 C.3       1 <1>         0.0268 
     13 C13         4.7778    3.6439   -2.7467 C.3       1 <1>        -0.0539 
     14 O14         7.2060    4.4913   -4.2316 O.3       1 <1>        -0.2696 
     15 O15         8.5205    9.3322   -6.5061 O.2       1 <1>        -0.3705 
     16 C16        10.4943   10.2609   -7.4427 C.3       1 <1>         0.0374 
     17 O17         7.8948    6.8286   -6.1680 O.3       1 <1>        -0.2685 
     18 C18         5.4559    7.7068   -7.0263 C.3       1 <1>        -0.0627 
     19 O19         5.2716    3.8839   -7.5020 O.3       1 <1>        -0.4305 
     20 H1          6.4022    6.1989   -4.4771 H         1 <1>         0.0707 
     21 H2          7.4916    4.9106   -6.9127 H         1 <1>         0.0677 
     22 C22         7.4873    7.2789   -9.2847 C.2       1 <1>        -0.0472 
     23 H3          5.1902    5.8108  -10.7128 H         1 <1>         0.0494 
     24 H4          4.7233    7.3398   -9.9028 H         1 <1>         0.0494 
     25 H5          6.8961    5.3204   -9.1556 H         1 <1>         0.0414 
     26 H6          2.3747    6.4203   -5.2595 H         1 <1>         0.1265 
     27 H7          2.4431    6.5724   -7.0848 H         1 <1>         0.1265 
     28 C30         9.0450    6.4987   -5.5683 C.2       1 <1>         0.2686 
     29 O31         9.4558    5.3486   -5.5373 O.2       1 <1>        -0.3671 
     30 C32         9.8197    7.6244   -4.9087 C.3       1 <1>         0.1894 
     31 C33         7.3995    8.5390   -9.7150 C.2       1 <1>         0.0719 
     32 O34         8.5592    9.1406  -10.0022 O.3       1 <1>        -0.2806 
     33 C35         9.4343    8.1678   -9.7212 C.2       1 <1>         0.0724 
     34 C36         8.9244    7.0229   -9.2677 C.2       1 <1>        -0.0638 
     35 C37         7.6925    3.3527   -4.7420 C.2       1 <1>         0.2284 
     36 O38         8.3453    2.6433   -3.9940 O.2       1 <1>        -0.3548 
     37 C39         2.6235    3.6997   -3.9739 C.3       1 <1>         0.1136 
     38 C40         1.9556    2.4199   -3.3967 C.3       1 <1>         0.0802 
     39 C41         1.5481    1.4671   -4.4823 C.2       1 <1>         0.2397 
     40 O42         2.4766    0.7569   -5.1169 O.3       1 <1>        -0.2375 
     41 C43         3.4668    1.4916   -5.8684 C.3       1 <1>         0.2263 
     42 C44         4.5416    2.2264   -4.9679 C.3       1 <1>         0.0501 
     43 O45         0.3704    1.2888   -4.7450 O.2       1 <1>        -0.3702 
     44 C46         4.7360    4.9227   -4.9494 C.3       1 <1>         0.0355 
     45 H8          4.4394    2.8238   -2.1046 H         1 <1>         0.0238 
     46 C48         8.9916    8.3543   -3.8004 C.3       1 <1>         0.0055 
     47 H9          4.4954    4.5652   -2.2133 H         1 <1>         0.0238 
     48 H10         5.8652    3.6177   -2.6779 H         1 <1>         0.0238 
     49 H11        11.2844    9.7238   -7.9862 H         1 <1>         0.0483 
     50 H12        10.9569   11.0357   -6.8144 H         1 <1>         0.0483 
     51 O51        10.5113    8.4947   -5.8347 O.3       1 <1>        -0.2506 
     52 O54         1.8931    4.0132   -5.1708 O.3       1 <1>        -0.2705 
     53 H13         9.8161   10.7418   -8.1633 H         1 <1>         0.0483 
     54 H14         4.5730    8.0223   -7.5992 H         1 <1>         0.0227 
     55 H15         6.2465    8.4458   -7.2075 H         1 <1>         0.0227 
     56 C58         2.8623    2.2779   -7.0783 C.3       1 <1>        -0.0013 
     57 O59         4.1962    0.3975   -6.4756 O.3       1 <1>        -0.2379 
     58 H16         5.2034    7.7717   -5.9581 H         1 <1>         0.0227 
     59 C61         5.2174    1.1277   -4.0669 C.3       1 <1>         0.0579 
     60 C62         0.6162    4.3916   -5.0082 C.2       1 <1>         0.2310 
     61 O63         0.1231    4.6619   -3.9249 O.2       1 <1>        -0.3707 
     62 C64        -0.1920    4.4682   -6.2711 C.3       1 <1>         0.0372 
     63 C65         3.4784   -0.4918   -7.1824 C.2       1 <1>         0.2338 
     64 O66         2.2860   -0.3934   -7.4219 O.2       1 <1>        -0.3706 
     65 C67         4.2636   -1.6651   -7.6933 C.3       1 <1>         0.0373 
     66 C68         6.0059    0.0586   -4.7846 C.2       1 <1>         0.2339 
     67 O69         5.7881   -1.1291   -4.6058 O.2       1 <1>        -0.3704 
     68 O70         6.9614    0.5108   -5.6097 O.3       1 <1>        -0.2802 
     69 C71         7.7600   -0.5324   -6.2007 C.3       1 <1>         0.0658 
     70 H17         5.6713    3.5932   -8.3144 H         1 <1>         0.1905 
     71 H18        10.6606    7.1370   -4.3906 H         1 <1>         0.0914 
     72 H19         6.4581    9.0686   -9.8425 H         1 <1>         0.0827 
     73 H20        10.5066    8.3021   -9.8565 H         1 <1>         0.0945 
     74 H21         9.4456    6.1147   -8.9658 H         1 <1>         0.0307 
     75 H22         7.5806    2.9746   -5.7568 H         1 <1>         0.1697 
     76 C76         8.7183    7.3872   -2.6100 C.3       1 <1>        -0.0575 
     77 H23         2.4561    4.5311   -3.2656 H         1 <1>         0.0684 
     78 H24         1.0339    2.6917   -2.8601 H         1 <1>         0.0548 
     79 H25         2.5493    1.8535   -2.6751 H         1 <1>         0.0548 
     80 H26         5.3326    2.4921   -5.6667 H         1 <1>         0.0394 
     81 H27         4.3594    5.6665   -4.2263 H         1 <1>         0.0503 
     82 H28         8.0149    8.6432   -4.2235 H         1 <1>         0.0353 
     83 H29         3.3464    1.9981   -8.0263 H         1 <1>         0.0289 
     84 H30         2.9763    3.3541   -7.0175 H         1 <1>         0.0289 
     85 H31         1.7875    2.0629   -7.1730 H         1 <1>         0.0289 
     86 H32         6.0097    1.5117   -3.4156 H         1 <1>         0.0523 
     87 C89         9.7172    9.6464   -3.3097 C.3       1 <1>        -0.0484 
     88 C90         8.9362   10.4193   -2.2118 C.3       1 <1>        -0.0648 
     89 H33         4.4680    0.6320   -3.4343 H         1 <1>         0.0523 
     90 H34         0.4620    4.5618   -7.1514 H         1 <1>         0.0483 
     91 H35        -0.8616    5.3396   -6.2304 H         1 <1>         0.0483 
     92 H36        -0.7930    3.5521   -6.3644 H         1 <1>         0.0483 
     93 H37         4.7267   -2.1937   -6.8474 H         1 <1>         0.0483 
     94 H38         5.0465   -1.3073   -8.3774 H         1 <1>         0.0483 
     95 H39         3.6063   -2.3626   -8.2333 H         1 <1>         0.0483 
     96 H40         8.2817   -1.1177   -5.4263 H         1 <1>         0.0577 
     97 H41         8.5145   -0.0563   -6.8444 H         1 <1>         0.0577 
     98 H42         7.1506   -1.2074   -6.8203 H         1 <1>         0.0577 
     99 H43         8.3753    6.4062   -2.9653 H         1 <1>         0.0235 
    100 H44         7.9367    7.7862   -1.9454 H         1 <1>         0.0235 
    101 H45         9.6357    7.2307   -2.0214 H         1 <1>         0.0235 
    102 H46        10.7186    9.3886   -2.9266 H         1 <1>         0.0268 
    103 H47         9.8472   10.3409   -4.1546 H         1 <1>         0.0268 
    104 H48         7.9031   10.6184   -2.5400 H         1 <1>         0.0230 
    105 H49         9.4281   11.3844   -2.0090 H         1 <1>         0.0230 
    106 H50         8.9108    9.8541   -1.2684 H         1 <1>         0.0230 
@<TRIPOS>BOND
     1   12   13 1    
     2   51    2 1    
     3    4    3 1    
     4    5    4 1    
     5    6    5 1    
     6    1    6 1    
     7    6    7 1    
     8    7   11 2    
     9    8    9 1    
    10    5    9 1    
    11    1   10 2    
    12    7    8 1    
    13   59   66 1    
    14   66   67 2    
    15    3   14 1    
    16    2   15 2    
    17    2   16 1    
    18    4   17 1    
    19    5   18 1    
    20    6   19 1    
    21    3   20 1    
    22    4   21 1    
    23    9   22 1    
    24    8   23 1    
    25    8   24 1    
    26    9   25 1    
    27   10   26 1    
    28   10   27 1    
    29   17   28 1    
    30   28   29 2    
    31   28   30 1    
    32   22   31 2    
    33   31   32 1    
    34   33   32 1    
    35   34   33 2    
    36   22   34 1    
    37   14   35 1    
    38   35   36 2    
    39   12   37 1    
    40   37   38 1    
    41   38   39 1    
    42   40   39 1    
    43   41   40 1    
    44   42   41 1    
    45   12   42 1    
    46   39   43 2    
    47   44   12 1    
    48   13   45 1    
    49   30   46 1    
    50   13   47 1    
    51   13   48 1    
    52   16   49 1    
    53   16   50 1    
    54   30   51 1    
    55   37   52 1    
    56   16   53 1    
    57   18   54 1    
    58   18   55 1    
    59   41   56 1    
    60   41   57 1    
    61   18   58 1    
    62   42   59 1    
    63   52   60 1    
    64   60   61 2    
    65   60   62 1    
    66   57   63 1    
    67   63   64 2    
    68   63   65 1    
    69    1   44 1    
    70   44    3 1    
    71   66   68 1    
    72   68   69 1    
    73   19   70 1    
    74   30   71 1    
    75   31   72 1    
    76   33   73 1    
    77   34   74 1    
    78   35   75 1    
    79   46   76 1    
    80   37   77 1    
    81   38   78 1    
    82   38   79 1    
    83   42   80 1    
    84   44   81 1    
    85   46   82 1    
    86   56   83 1    
    87   56   84 1    
    88   56   85 1    
    89   59   86 1    
    90   46   87 1    
    91   87   88 1    
    92   59   89 1    
    93   62   90 1    
    94   62   91 1    
    95   62   92 1    
    96   65   93 1    
    97   65   94 1    
    98   65   95 1    
    99   69   96 1    
   100   69   97 1    
   101   69   98 1    
   102   76   99 1    
   103   76  100 1    
   104   76  101 1    
   105   87  102 1    
   106   87  103 1    
   107   88  104 1    
   108   88  105 1    
   109   88  106 1    
@<TRIPOS>SUBSTRUCTURE
     1 ****        1 TEMP              0 ****  ****    0 ROOT 
@<TRIPOS>NORMAL
@<TRIPOS>FF_PBC
FORCE_FIELD_SETUP_FEATURE Force Field Setup information
v1.0  0 0.000000 0.000000 0.000000 0.000000 0.000000 0.000000 NONE 0 0 0 0 1 0 0 0 0 0 0 0 0
@<TRIPOS>RENDERING_ATTRS
ANTIALIASED_LINES 
1,2,3,4,5,6,7,8,9,10,11,12,13,14,15,16,17,18,19,22,28,29,30,31,32,33,34,35,36,37,38,39,40,41,42,43,44,46,51,52,56,57,59,60,61,62,63,64,65,66,67,68,69,76,87,88
