#	Name:			PISM00695
#	Creating user name:	baoopengkun
#	Creation time:		Sun Jan 20 21:12:11 2019

#	Modifying user name:	baoopengkun
#	Modification time:	Sun Jan 20 21:14:24 2019

@<TRIPOS>MOLECULE
PISM00695
   42    44     1     1     0
SMALL
GAST_HUCK


@<TRIPOS>ATOM
      1 F1         -2.2721    3.3455    6.6987 F         1 <1>        -0.1794 
      2 C2         -1.0919    2.8368    6.3546 C.ar      1 <1>         0.1375 
      3 C3          0.0835    3.5214    6.6734 C.ar      1 <1>        -0.0223 
      4 C4          1.3236    2.9893    6.3078 C.ar      1 <1>        -0.0437 
      5 C5          1.3888    1.7865    5.5963 C.ar      1 <1>         0.0460 
      6 C6          0.2120    1.0913    5.3003 C.ar      1 <1>        -0.0437 
      7 C7         -1.0277    1.6175    5.6756 C.ar      1 <1>        -0.0223 
      8 C8          2.7188    1.2164    5.1534 C.2       1 <1>         0.2065 
      9 O9          2.9696    0.0940    5.5606 O.2       1 <1>        -0.3862 
     10 N10         3.5895    1.8846    4.3474 N.am      1 <1>        -0.2587 
     11 C11         3.1973    3.1327    3.6724 C.3       1 <1>         0.0466 
     12 C12         4.0905    4.3401    4.0601 C.3       1 <1>        -0.0414 
     13 C13         3.2796    2.8894    2.1406 C.3       1 <1>        -0.0179 
     14 C14         2.2049    1.9201    1.6003 C.3       1 <1>        -0.0478 
     15 C15         2.1314    3.4234    1.2540 C.3       1 <1>        -0.0478 
     16 C16         4.8726    1.2258    4.0843 C.3       1 <1>         0.0672 
     17 C17         5.6382    0.9001    5.3759 C.ar      1 <1>        -0.0208 
     18 C18         5.5425    1.7419    6.4898 C.ar      1 <1>        -0.0584 
     19 C19         6.2335    1.4422    7.6673 C.ar      1 <1>        -0.0685 
     20 C20         7.0289    0.2955    7.7387 C.ar      1 <1>        -0.0687 
     21 C21         7.1314   -0.5483    6.6295 C.ar      1 <1>        -0.0685 
     22 C22         6.4399   -0.2451    5.4529 C.ar      1 <1>        -0.0584 
     23 H1          0.0275    4.4648    7.2064 H         1 <1>         0.0616 
     24 H2          2.2362    3.5076    6.5814 H         1 <1>         0.0659 
     25 H3          0.2632    0.1418    4.7762 H         1 <1>         0.0659 
     26 H4         -1.9430    1.0839    5.4418 H         1 <1>         0.0616 
     27 H5          2.1627    3.4301    3.8990 H         1 <1>         0.0559 
     28 H6          3.7672    5.2361    3.5069 H         1 <1>         0.0252 
     29 H7          5.1478    4.1558    3.8238 H         1 <1>         0.0252 
     30 H8          4.0064    4.5500    5.1359 H         1 <1>         0.0252 
     31 H9          4.2591    2.7939    1.6463 H         1 <1>         0.0323 
     32 H10         1.4543    1.5397    2.3111 H         1 <1>         0.0269 
     33 H11         2.5087    1.2409    0.7884 H         1 <1>         0.0269 
     34 H12         1.3136    3.9914    1.7238 H         1 <1>         0.0269 
     35 H13         2.3846    3.6906    0.2161 H         1 <1>         0.0269 
     36 H14         5.5513    1.8437    3.4814 H         1 <1>         0.0685 
     37 H15         4.6724    0.3029    3.5171 H         1 <1>         0.0685 
     38 H16         4.9294    2.6341    6.4478 H         1 <1>         0.0557 
     39 H17         6.1521    2.1001    8.5272 H         1 <1>         0.0599 
     40 H18         7.5651    0.0607    8.6531 H         1 <1>         0.0559 
     41 H19         7.7484   -1.4401    6.6822 H         1 <1>         0.0599 
     42 H20         6.5305   -0.9070    4.5977 H         1 <1>         0.0557 
@<TRIPOS>BOND
     1    2    1 1    
     2    2    3 ar   
     3    3    4 ar   
     4    4    5 ar   
     5    5    6 ar   
     6    6    7 ar   
     7    7    2 ar   
     8    5    8 1    
     9    8    9 2    
    10    8   10 am   
    11   10   11 1    
    12   11   12 1    
    13   11   13 1    
    14   13   14 1    
    15   14   15 1    
    16   13   15 1    
    17   10   16 1    
    18   16   17 1    
    19   17   18 ar   
    20   18   19 ar   
    21   19   20 ar   
    22   20   21 ar   
    23   21   22 ar   
    24   17   22 ar   
    25    3   23 1    
    26    4   24 1    
    27    6   25 1    
    28    7   26 1    
    29   11   27 1    
    30   12   28 1    
    31   12   29 1    
    32   12   30 1    
    33   13   31 1    
    34   14   32 1    
    35   14   33 1    
    36   15   34 1    
    37   15   35 1    
    38   16   36 1    
    39   16   37 1    
    40   18   38 1    
    41   19   39 1    
    42   20   40 1    
    43   21   41 1    
    44   22   42 1    
@<TRIPOS>SUBSTRUCTURE
     1 ****        2 TEMP              0 ****  ****    0 ROOT 
@<TRIPOS>NORMAL
@<TRIPOS>FF_PBC
FORCE_FIELD_SETUP_FEATURE Force Field Setup information
v1.0  0 0.000000 0.000000 0.000000 0.000000 0.000000 0.000000 NONE 0 0 0 0 1 0 0 0 0 0 0 0 0
