#	Name:			PISM00659
#	Creating user name:	baoopengkun
#	Creation time:		Sat Jan 12 19:36:55 2019

#	Modifying user name:	baoopengkun
#	Modification time:	Sat Jan 12 19:41:59 2019

@<TRIPOS>MOLECULE
PISM00659
   25    25     1     1     0
SMALL
GAST_HUCK


@<TRIPOS>ATOM
      1 N1         -5.2243   -7.5372    0.6445 N.pl3     1 <1>         0.1212 
      2 C2         -4.2402   -6.6337    0.3897 C.ar      1 <1>         0.1457 
      3 C3         -2.8970   -7.0258    0.3032 C.ar      1 <1>         0.0217 
      4 N4         -1.9232   -6.1299    0.0394 N.ar      1 <1>        -0.2946 
      5 C5         -2.1942   -4.8333   -0.2081 C.ar      1 <1>         0.1220 
      6 C6         -3.5064   -4.3663   -0.0733 C.ar      1 <1>        -0.0218 
      7 C7         -4.5310   -5.2751    0.2063 C.ar      1 <1>        -0.0265 
      8 N8         -1.1535   -4.0439   -0.5647 N.pl3     1 <1>        -0.2281 
      9 C9         -1.2618   -3.0806   -1.4422 C.2       1 <1>         0.2184 
     10 O10        -2.2972   -2.8078   -2.0256 O.2       1 <1>        -0.3732 
     11 C11        -0.0381   -2.2675   -1.7787 C.3       1 <1>         0.0821 
     12 C12         0.9203   -3.1462   -2.5376 C.2       1 <1>         0.0255 
     13 O13         2.9078   -4.3543   -2.5735 O.2       1 <1>        -0.3765 
     14 C14         2.1076   -3.7309   -1.8955 C.2       1 <1>         0.2398 
     15 H15         3.0998   -4.0003   -0.3001 H         1 <1>         0.2482 
     16 H2         -2.6064   -8.0609    0.4458 H         1 <1>         0.0679 
     17 H3         -3.7397   -3.3117   -0.1710 H         1 <1>         0.0595 
     18 H4         -5.5497   -4.9080    0.2796 H         1 <1>         0.0612 
     19 H5         -0.2344   -4.2517   -0.1468 H         1 <1>         0.2117 
     20 H6          0.4080   -1.8857   -0.8478 H         1 <1>         0.0756 
     21 O21         2.2944   -3.5801   -0.5841 O.3       1 <1>        -0.3022 
     22 H7         -0.3109   -1.4011   -2.4015 H         1 <1>         0.0756 
     23 H8          0.7359   -3.3699   -3.5885 H         1 <1>         0.0752 
     24 O24        -6.3677   -7.1384    0.7005 O.2       1 <1>        -0.1142 
     25 O25        -4.9107   -8.6970    0.8029 O.2       1 <1>        -0.1142 
@<TRIPOS>BOND
     1    2    1 1    
     2    2    3 ar   
     3    3    4 ar   
     4    4    5 ar   
     5    5    6 ar   
     6    6    7 ar   
     7    2    7 ar   
     8    5    8 1    
     9    8    9 1    
    10    9   10 2    
    11    9   11 1    
    12   11   12 1    
    13   14   13 2    
    14   12   14 1    
    15   21   15 1    
    16    3   16 1    
    17    6   17 1    
    18    7   18 1    
    19    8   19 1    
    20   11   20 1    
    21   14   21 1    
    22   11   22 1    
    23   12   23 1    
    24    1   24 2    
    25    1   25 2    
@<TRIPOS>SUBSTRUCTURE
     1 ****        2 TEMP              0 ****  ****    0 ROOT 
@<TRIPOS>NORMAL
@<TRIPOS>FF_PBC
FORCE_FIELD_SETUP_FEATURE Force Field Setup information
v1.0  0 0.000000 0.000000 0.000000 0.000000 0.000000 0.000000 NONE 0 0 0 0 1 0 0 0 0 0 0 0 0
