#	Name:			PISM00698
#	Creating user name:	baoopengkun
#	Creation time:		Sun Jan 20 21:12:11 2019

#	Modifying user name:	baoopengkun
#	Modification time:	Sun Jan 20 21:16:44 2019

@<TRIPOS>MOLECULE
PISM00698
   38    39     1     1     0
SMALL
GAST_HUCK


@<TRIPOS>ATOM
      1 Br1        -2.6056    3.8196    7.0788 Br        1 <1>        -0.0461 
      2 C2         -1.1100    2.9913    6.3651 C.ar      1 <1>         0.0173 
      3 C3          0.1677    3.3687    6.7880 C.ar      1 <1>        -0.0468 
      4 C4          1.2959    2.7456    6.2466 C.ar      1 <1>        -0.0393 
      5 C5          1.1517    1.7664    5.2584 C.ar      1 <1>         0.0529 
      6 C6         -0.1279    1.3733    4.8548 C.ar      1 <1>        -0.0393 
      7 C7         -1.2575    1.9870    5.4040 C.ar      1 <1>        -0.0468 
      8 C8          2.3651    1.1151    4.6307 C.2       1 <1>         0.2114 
      9 O9          2.4189   -0.0993    4.7353 O.2       1 <1>        -0.3831 
     10 N10         3.3374    1.8133    3.9802 N.am      1 <1>        -0.2582 
     11 C11         3.1466    3.2327    3.6307 C.3       1 <1>         0.0411 
     12 C12         3.1545    3.3839    2.0848 C.3       1 <1>        -0.0419 
     13 C13         4.2062    4.1618    4.2826 C.3       1 <1>        -0.0419 
     14 H1          0.2836    4.1442    7.5386 H         1 <1>         0.0655 
     15 H2          2.2848    3.0176    6.5987 H         1 <1>         0.0675 
     16 C16         4.5025    1.0446    3.5298 C.3       1 <1>         0.0673 
     17 C17         5.1302    0.2401    4.6787 C.ar      1 <1>        -0.0208 
     18 C18         5.4234    0.8757    5.8901 C.ar      1 <1>        -0.0584 
     19 C19         5.9961    0.1617    6.9465 C.ar      1 <1>        -0.0685 
     20 C20         6.2787   -1.1987    6.7976 C.ar      1 <1>        -0.0687 
     21 C21         5.9856   -1.8409    5.5915 C.ar      1 <1>        -0.0685 
     22 C22         5.4130   -1.1238    4.5367 C.ar      1 <1>        -0.0584 
     23 H3         -0.2423    0.5905    4.1112 H         1 <1>         0.0675 
     24 H4         -2.2494    1.6840    5.0839 H         1 <1>         0.0655 
     25 H5          2.1601    3.6138    3.9413 H         1 <1>         0.0554 
     26 H6          2.8934    4.4135    1.7928 H         1 <1>         0.0252 
     27 H7          2.4134    2.6979    1.6452 H         1 <1>         0.0252 
     28 H8          4.1405    3.1508    1.6583 H         1 <1>         0.0252 
     29 H9          4.1564    4.0866    5.3780 H         1 <1>         0.0252 
     30 H10         4.0163    5.2100    4.0032 H         1 <1>         0.0252 
     31 H11         5.2250    3.9034    3.9618 H         1 <1>         0.0252 
     32 H12         5.3093    1.6815    3.1429 H         1 <1>         0.0686 
     33 H13         4.1822    0.3806    2.7118 H         1 <1>         0.0686 
     34 H14         5.2060    1.9296    6.0152 H         1 <1>         0.0557 
     35 H15         6.2210    0.6635    7.8827 H         1 <1>         0.0599 
     36 H16         6.7240   -1.7551    7.6166 H         1 <1>         0.0559 
     37 H17         6.2024   -2.8983    5.4742 H         1 <1>         0.0599 
     38 H18         5.1886   -1.6365    3.6071 H         1 <1>         0.0557 
@<TRIPOS>BOND
     1    2    1 1    
     2    2    3 ar   
     3    3    4 ar   
     4    4    5 ar   
     5    6    5 ar   
     6    7    6 ar   
     7    2    7 ar   
     8    5    8 1    
     9    8    9 2    
    10    8   10 am   
    11   10   11 1    
    12   11   12 1    
    13   11   13 1    
    14    3   14 1    
    15    4   15 1    
    16    6   23 1    
    17   10   16 1    
    18   16   17 1    
    19   17   18 ar   
    20   18   19 ar   
    21   19   20 ar   
    22   21   20 ar   
    23   22   21 ar   
    24   17   22 ar   
    25    7   24 1    
    26   11   25 1    
    27   12   26 1    
    28   12   27 1    
    29   12   28 1    
    30   13   29 1    
    31   13   30 1    
    32   13   31 1    
    33   16   32 1    
    34   16   33 1    
    35   18   34 1    
    36   19   35 1    
    37   20   36 1    
    38   21   37 1    
    39   22   38 1    
@<TRIPOS>SUBSTRUCTURE
     1 ****        2 TEMP              0 ****  ****    0 ROOT 
@<TRIPOS>NORMAL
@<TRIPOS>FF_PBC
FORCE_FIELD_SETUP_FEATURE Force Field Setup information
v1.0  0 0.000000 0.000000 0.000000 0.000000 0.000000 0.000000 NONE 0 0 0 0 1 0 0 0 0 0 0 0 0
