#	Name:			PISM00451
#	Creating user name:	baoopengkun
#	Creation time:		Wed Feb 27 21:28:34 2019

#	Modifying user name:	baoopengkun
#	Modification time:	Wed Feb 27 21:30:29 2019

@<TRIPOS>MOLECULE
PISM00451
   53    56     1     1     0
SMALL
GAST_HUCK


@<TRIPOS>ATOM
      1 C1         20.3758    0.6326  -17.4431 C.3       1 <1>        -0.0074 
      2 S2         20.2793    2.2520  -16.6111 S.3       1 <1>        -0.1121 
      3 C3         20.4400    1.6078  -14.9547 C.2       1 <1>         0.0544 
      4 S4         21.9887    0.9011  -14.4377 S.3       1 <1>        -0.0416 
      5 C5         21.2600    0.5987  -12.8484 C.2       1 <1>        -0.0024 
      6 C6         19.9783    0.9604  -12.7749 C.2       1 <1>        -0.0878 
      7 C7         19.4940    1.6018  -14.0057 C.2       1 <1>        -0.0624 
      8 C8         22.0516   -0.0057  -11.7210 C.3       1 <1>        -0.0254 
      9 C9         18.0981    2.1733  -14.0680 C.3       1 <1>         0.0046 
     10 C10        17.6098    2.4350  -15.4610 C.2       1 <1>         0.0130 
     11 C11        17.6070    3.6839  -15.9484 C.2       1 <1>         0.0623 
     12 N12        17.9164    4.7216  -15.2046 N.pl3     1 <1>        -0.2585 
     13 C13        18.1685    4.6339  -13.9173 C.2       1 <1>         0.0604 
     14 C14        18.2116    3.4522  -13.2834 C.2       1 <1>         0.0351 
     15 C15        17.2123    3.9536  -17.3914 C.3       1 <1>         0.0134 
     16 C16        17.1613    2.6888  -18.2913 C.3       1 <1>        -0.0239 
     17 C17        16.4196    1.5448  -17.5637 C.3       1 <1>         0.0137 
     18 C18        17.1316    1.2971  -16.2666 C.2       1 <1>         0.0891 
     19 O19        17.2963    0.1522  -15.8782 O.2       1 <1>        -0.4147 
     20 C20        18.3973    3.3376  -11.8203 C.2       1 <1>         0.1856 
     21 O21        19.4069    3.8245  -11.3372 O.2       1 <1>        -0.4013 
     22 N22        17.4835    2.7328  -11.1064 N.pl3     1 <1>        -0.2491 
     23 C23        17.5928    2.5383   -9.7691 C.ar      1 <1>         0.0592 
     24 C24        18.7830    2.0899   -9.1804 C.ar      1 <1>        -0.0403 
     25 C25        18.8192    1.7700   -7.8197 C.ar      1 <1>        -0.0723 
     26 C26        17.6805    1.9435   -7.0277 C.ar      1 <1>        -0.0741 
     27 C27        16.5113    2.4577   -7.5936 C.ar      1 <1>        -0.0723 
     28 C28        16.4728    2.7565   -8.9579 C.ar      1 <1>        -0.0403 
     29 C29        18.3920    5.9427  -13.1761 C.3       1 <1>        -0.0007 
     30 H1         19.6948   -0.0854  -16.9628 H         1 <1>         0.0363 
     31 H2         21.4053    0.2492  -17.3886 H         1 <1>         0.0363 
     32 H3         20.0926    0.7416  -18.4993 H         1 <1>         0.0363 
     33 H4         19.3554    0.8095  -11.8950 H         1 <1>         0.0235 
     34 H5         22.4713   -0.9715  -12.0376 H         1 <1>         0.0395 
     35 H6         21.4354   -0.1575  -10.8222 H         1 <1>         0.0395 
     36 H7         22.8756    0.6773  -11.4688 H         1 <1>         0.0395 
     37 H8         17.4044    1.4671  -13.5896 H         1 <1>         0.0448 
     38 H9         17.9085    5.6566  -15.6426 H         1 <1>         0.2216 
     39 H10        17.9207    4.6626  -17.8547 H         1 <1>         0.0502 
     40 H11        16.2146    4.4207  -17.3752 H         1 <1>         0.0502 
     41 H12        18.1858    2.3616  -18.5184 H         1 <1>         0.0317 
     42 H13        16.6667    2.9149  -19.2502 H         1 <1>         0.0317 
     43 H14        16.4198    0.6316  -18.1807 H         1 <1>         0.0470 
     44 H15        15.3787    1.8268  -17.3424 H         1 <1>         0.0470 
     45 H16        16.6261    2.3991  -11.5694 H         1 <1>         0.2078 
     46 H17        19.6851    1.9716   -9.7696 H         1 <1>         0.0528 
     47 H18        19.7328    1.3836   -7.3780 H         1 <1>         0.0586 
     48 H19        17.7034    1.6805   -5.9747 H         1 <1>         0.0514 
     49 H20        15.6329    2.6242   -6.9754 H         1 <1>         0.0586 
     50 H21        15.5633    3.1599   -9.3923 H         1 <1>         0.0528 
     51 H22        18.2662    5.8640  -12.0856 H         1 <1>         0.0463 
     52 H23        17.6842    6.7146  -13.5153 H         1 <1>         0.0463 
     53 H24        19.4167    6.2905  -13.3799 H         1 <1>         0.0463 
@<TRIPOS>BOND
     1    2    1 1    
     2    2    3 1    
     3    3    4 1    
     4    4    5 1    
     5    5    6 2    
     6    6    7 1    
     7    3    7 2    
     8    5    8 1    
     9    7    9 1    
    10    9   10 1    
    11   10   11 2    
    12   11   12 1    
    13   12   13 1    
    14   13   14 2    
    15    9   14 1    
    16   11   15 1    
    17   15   16 1    
    18   16   17 1    
    19   17   18 1    
    20   18   19 2    
    21   10   18 1    
    22   14   20 1    
    23   20   21 2    
    24   20   22 1    
    25   22   23 1    
    26   23   24 ar   
    27   24   25 ar   
    28   25   26 ar   
    29   26   27 ar   
    30   27   28 ar   
    31   23   28 ar   
    32   13   29 1    
    33    1   30 1    
    34    1   31 1    
    35    1   32 1    
    36    6   33 1    
    37    8   34 1    
    38    8   35 1    
    39    8   36 1    
    40    9   37 1    
    41   12   38 1    
    42   15   39 1    
    43   15   40 1    
    44   16   41 1    
    45   16   42 1    
    46   17   43 1    
    47   17   44 1    
    48   22   45 1    
    49   24   46 1    
    50   25   47 1    
    51   26   48 1    
    52   27   49 1    
    53   28   50 1    
    54   29   51 1    
    55   29   52 1    
    56   29   53 1    
@<TRIPOS>SUBSTRUCTURE
     1 ****        2 TEMP              0 ****  ****    0 ROOT 
@<TRIPOS>NORMAL
@<TRIPOS>FF_PBC
FORCE_FIELD_SETUP_FEATURE Force Field Setup information
v1.0  0 0.000000 0.000000 0.000000 0.000000 0.000000 0.000000 NONE 0 0 0 0 1 0 0 0 0 0 0 0 0
