#	Name:			PISM00100
#	Creating user name:	baoopengkun
#	Creation time:		Sun Dec 16 14:28:33 2018

#	Modifying user name:	baoopengkun
#	Modification time:	Sun Dec 16 14:30:53 2018

@<TRIPOS>MOLECULE
PISM00100
   42    45     1     1     0
SMALL
GAST_HUCK


@<TRIPOS>ATOM
      1 C1         -4.2764    8.3310    1.7818 C.3       1 <1>        -0.0311 
      2 C2         -3.3015    9.4391    1.3653 C.ar      1 <1>        -0.0475 
      3 C3         -3.5530   10.7749    1.6986 C.ar      1 <1>        -0.0592 
      4 C4         -2.6697   11.7831    1.3002 C.ar      1 <1>        -0.0587 
      5 C5         -1.5208   11.4622    0.5686 C.ar      1 <1>        -0.0160 
      6 C6         -1.2588   10.1265    0.2511 C.ar      1 <1>         0.0147 
      7 C7         -2.1455    9.1212    0.6441 C.ar      1 <1>        -0.0516 
      8 N8         -0.1468    9.7960   -0.4354 N.ar      1 <1>        -0.2961 
      9 C9          0.7699   10.7173   -0.7971 C.ar      1 <1>         0.1436 
     10 C10         0.5234   12.0817   -0.5838 C.ar      1 <1>         0.0098 
     11 C11        -0.6199   12.4423    0.1398 C.ar      1 <1>        -0.0431 
     12 C12         1.4513   13.1787   -1.1235 C.3       1 <1>        -0.0263 
     13 N13         1.9039   10.2390   -1.3614 N.pl3     1 <1>        -0.2094 
     14 N14         3.0461   10.9632   -1.4515 N.2       1 <1>        -0.2174 
     15 C15         4.0520   10.5790   -2.1324 C.2       1 <1>         0.0115 
     16 C16         5.2701   11.4040   -2.1651 C.2       1 <1>        -0.0022 
     17 C17         5.5212   12.5516   -1.5138 C.2       1 <1>         0.0411 
     18 N18         6.7252   12.9716   -1.8109 N.pl3     1 <1>        -0.2725 
     19 C19         7.3447   12.1371   -2.6683 C.ar      1 <1>         0.0687 
     20 C20         6.5034   11.0838   -2.9720 C.ar      1 <1>        -0.0130 
     21 C21         8.6239   12.2350   -3.2151 C.ar      1 <1>        -0.0415 
     22 C22         9.0221   11.2141   -4.0887 C.ar      1 <1>        -0.0752 
     23 C23         8.1654   10.1447   -4.3957 C.ar      1 <1>        -0.0778 
     24 C24         6.8816   10.0605   -3.8403 C.ar      1 <1>        -0.0726 
     25 H1         -5.2939    8.7277    1.9170 H         1 <1>         0.0394 
     26 H2         -3.9325    7.8941    2.7310 H         1 <1>         0.0394 
     27 H3         -4.3132    7.5417    1.0157 H         1 <1>         0.0394 
     28 H4         -4.4376   11.0361    2.2708 H         1 <1>         0.0562 
     29 H5         -2.8838   12.8143    1.5633 H         1 <1>         0.0615 
     30 H6         -1.9264    8.0909    0.3853 H         1 <1>         0.0506 
     31 H7         -0.8110   13.4853    0.3697 H         1 <1>         0.0643 
     32 H8          1.7580   12.9474   -2.1546 H         1 <1>         0.0386 
     33 H9          2.3366   13.2465   -0.4759 H         1 <1>         0.0386 
     34 H10         0.9541   14.1601   -1.1372 H         1 <1>         0.0386 
     35 H11         1.8970    9.2542   -1.6707 H         1 <1>         0.2315 
     36 H12         4.0440    9.6489   -2.6999 H         1 <1>         0.0759 
     37 H13         4.8192   13.0447   -0.8420 H         1 <1>         0.1019 
     38 H14         7.1500   13.8330   -1.4351 H         1 <1>         0.2310 
     39 H15         9.2779   13.0654   -2.9723 H         1 <1>         0.0549 
     40 H16        10.0110   11.2517   -4.5354 H         1 <1>         0.0537 
     41 H17         8.5023    9.3680   -5.0757 H         1 <1>         0.0519 
     42 H18         6.2124    9.2394   -4.0730 H         1 <1>         0.0545 
@<TRIPOS>BOND
     1    2    1 1    
     2    2    3 ar   
     3    3    4 ar   
     4    4    5 ar   
     5    5    6 ar   
     6    6    7 ar   
     7    2    7 ar   
     8    6    8 ar   
     9    8    9 ar   
    10    9   10 ar   
    11   10   11 ar   
    12    5   11 ar   
    13   10   12 1    
    14    9   13 1    
    15   13   14 1    
    16   14   15 2    
    17   15   16 1    
    18   16   17 2    
    19   17   18 1    
    20   18   19 1    
    21   19   20 ar   
    22   16   20 1    
    23   19   21 ar   
    24   21   22 ar   
    25   22   23 ar   
    26   23   24 ar   
    27   20   24 ar   
    28    1   25 1    
    29    1   26 1    
    30    1   27 1    
    31    3   28 1    
    32    4   29 1    
    33    7   30 1    
    34   11   31 1    
    35   12   32 1    
    36   12   33 1    
    37   12   34 1    
    38   13   35 1    
    39   15   36 1    
    40   17   37 1    
    41   18   38 1    
    42   21   39 1    
    43   22   40 1    
    44   23   41 1    
    45   24   42 1    
@<TRIPOS>SUBSTRUCTURE
     1 ****        2 TEMP              0 ****  ****    0 ROOT 
@<TRIPOS>NORMAL
@<TRIPOS>FF_PBC
FORCE_FIELD_SETUP_FEATURE Force Field Setup information
v1.0  0 0.000000 0.000000 0.000000 0.000000 0.000000 0.000000 NONE 0 0 0 0 1 0 0 0 0 0 0 0 0
