#	Name:			PISM00988
#	Creating user name:	baoopengkun
#	Creation time:		Fri Jan 11 22:05:04 2019

#	Modifying user name:	baoopengkun
#	Modification time:	Fri Jan 11 22:07:51 2019

@<TRIPOS>MOLECULE
PISM00988
   39    41     1     1     0
SMALL
GAST_HUCK


@<TRIPOS>ATOM
      1 C1          9.6437    7.0431  -14.2847 C.3       1 <1>         0.0589 
      2 H1         10.0196    8.0328  -14.5890 H         1 <1>         0.0577 
      3 C3         12.9108    3.0565   -1.3771 C.2       1 <1>         0.0412 
      4 C4         14.1790    3.1979   -1.7761 C.2       1 <1>         0.0412 
      5 H2          9.1337    7.1244  -13.3111 H         1 <1>         0.0577 
      6 H3          8.9117    6.7039  -15.0323 H         1 <1>         0.0577 
      7 C7         12.0811    3.3588   -2.5529 C.2       1 <1>         0.2576 
      8 O8         10.8644    3.3399   -2.5376 O.2       1 <1>        -0.3492 
      9 N9         12.8658    3.6449   -3.5492 N.pl3     1 <1>        -0.1377 
     10 C10        14.1135    3.5833   -3.1912 C.2       1 <1>         0.2576 
     11 O11        15.0936    3.7976   -3.8836 O.2       1 <1>        -0.3492 
     12 C12        12.4455    3.9469   -4.8045 C.ar      1 <1>         0.0861 
     13 C13        11.4801    3.1568   -5.4379 C.ar      1 <1>        -0.0343 
     14 C14        11.1290    3.4068   -6.7667 C.ar      1 <1>        -0.0441 
     15 C15        11.7090    4.4726   -7.4578 C.ar      1 <1>         0.1026 
     16 C16        12.6055    5.3188   -6.7994 C.ar      1 <1>        -0.0441 
     17 C17        12.9765    5.0539   -5.4776 C.ar      1 <1>        -0.0343 
     18 S18        11.2510    4.7451   -9.1561 S.o2      1 <1>         0.0842 
     19 O19        10.8363    3.4853   -9.7385 O.2       1 <1>        -0.1461 
     20 O20        10.3500    5.8777   -9.2102 O.2       1 <1>        -0.1461 
     21 N21        12.6586    5.1884   -9.8637 N.am      1 <1>        -0.1910 
     22 C22        12.6739    5.8812  -11.1033 C.ar      1 <1>         0.0535 
     23 C23        11.6626    5.6742  -12.0464 C.ar      1 <1>        -0.0184 
     24 C24        11.7004    6.3380  -13.2744 C.ar      1 <1>         0.0749 
     25 C25        12.7366    7.2357  -13.5500 C.ar      1 <1>        -0.0504 
     26 C26        13.7414    7.4623  -12.6038 C.ar      1 <1>        -0.0860 
     27 C27        13.7138    6.7767  -11.3866 C.ar      1 <1>        -0.0565 
     28 O28        10.7143    6.0880  -14.2298 O.3       1 <1>        -0.3257 
     29 H4         12.5663    2.7789   -0.3842 H         1 <1>         0.0816 
     30 H5         15.0841    3.0555   -1.1842 H         1 <1>         0.0816 
     31 H6         11.0031    2.3391   -4.9105 H         1 <1>         0.0539 
     32 H7         10.4059    2.7713   -7.2650 H         1 <1>         0.0607 
     33 H8         13.0139    6.1825   -7.3098 H         1 <1>         0.0607 
     34 H9         13.6775    5.7128   -4.9760 H         1 <1>         0.0539 
     35 H10        13.5271    4.9470   -9.4228 H         1 <1>         0.2158 
     36 H11        10.8482    4.9909  -11.8410 H         1 <1>         0.0397 
     37 H12        12.7591    7.7500  -14.5021 H         1 <1>         0.0402 
     38 H13        14.5422    8.1716  -12.8115 H         1 <1>         0.0547 
     39 H14        14.5021    6.9466  -10.6571 H         1 <1>         0.0393 
@<TRIPOS>BOND
     1   28    1 1    
     2    1    2 1    
     3    4    3 2    
     4    1    5 1    
     5    1    6 1    
     6    3   29 1    
     7    3    7 1    
     8    7    8 2    
     9    9    7 1    
    10   10    9 1    
    11   10   11 2    
    12    4   10 1    
    13    9   12 1    
    14   12   13 ar   
    15   13   14 ar   
    16   14   15 ar   
    17   16   15 ar   
    18   17   16 ar   
    19   12   17 ar   
    20   15   18 1    
    21   18   19 2    
    22   18   20 2    
    23   18   21 1    
    24   21   22 1    
    25   22   23 ar   
    26   23   24 ar   
    27   24   25 ar   
    28   26   25 ar   
    29   27   26 ar   
    30   22   27 ar   
    31   24   28 1    
    32    4   30 1    
    33   13   31 1    
    34   14   32 1    
    35   16   33 1    
    36   17   34 1    
    37   21   35 1    
    38   23   36 1    
    39   25   37 1    
    40   26   38 1    
    41   27   39 1    
@<TRIPOS>SUBSTRUCTURE
     1 ****        4 TEMP              0 ****  ****    0 ROOT 
@<TRIPOS>NORMAL
@<TRIPOS>FF_PBC
FORCE_FIELD_SETUP_FEATURE Force Field Setup information
v1.0  0 0.000000 0.000000 0.000000 0.000000 0.000000 0.000000 NONE 0 0 0 0 1 0 0 0 0 0 0 0 0
