#	Name:			PISM01089
#	Creating user name:	Qinrunwen
#	Creation time:		Mon Apr 01 12:07:54 2019

#	Modifying user name:	Qinrunwen
#	Modification time:	Mon Apr 01 13:18:23 2019

@<TRIPOS>MOLECULE
PISM01089
   48    52     1     1     0
SMALL
GAST_HUCK


@<TRIPOS>ATOM
      1 C1          4.2623   30.4883   -1.5947 C.ar      1 <1>        -0.0520 
      2 C2          5.0915   29.3595   -1.5718 C.ar      1 <1>        -0.0363 
      3 C3          6.4660   29.5796   -1.4925 C.ar      1 <1>         0.0789 
      4 C4          6.9980   30.8562   -1.4262 C.ar      1 <1>         0.0789 
      5 C5          6.1842   31.9884   -1.4453 C.ar      1 <1>        -0.0363 
      6 C6          4.8009   31.7834   -1.5352 C.ar      1 <1>        -0.0520 
      7 C7          7.6517   28.6500   -1.4593 C.2       1 <1>         0.2614 
      8 N8          8.7302   29.3820   -1.3832 N.pl3     1 <1>        -0.1334 
      9 C9          8.4914   30.6659   -1.3437 C.2       1 <1>         0.2614 
     10 O10         9.3032   31.5710   -1.2579 O.2       1 <1>        -0.3529 
     11 O11         7.5816   27.4337   -1.4999 O.2       1 <1>        -0.3529 
     12 C12         9.9714   28.8452   -1.3277 C.ar      1 <1>         0.0997 
     13 C13        10.2914   28.0331   -0.2382 C.ar      1 <1>        -0.0352 
     14 C14        11.5512   27.4399   -0.1514 C.ar      1 <1>        -0.0484 
     15 C15        12.4987   27.6418   -1.1587 C.ar      1 <1>         0.1011 
     16 C16        12.2081   28.5148   -2.2191 C.ar      1 <1>        -0.0002 
     17 C17        10.9256   29.0791   -2.3291 C.ar      1 <1>         0.0166 
     18 C18        10.6091   29.8614   -3.4494 C.ar      1 <1>        -0.0536 
     19 C19        11.5837   30.1835   -4.3960 C.ar      1 <1>        -0.0635 
     20 C20        12.8736   29.6720   -4.2581 C.ar      1 <1>        -0.0641 
     21 C21        13.1747   28.8327   -3.1835 C.ar      1 <1>        -0.0570 
     22 S22        14.0398   26.7384   -1.0259 S.o2      1 <1>         0.0644 
     23 O23        13.9396   25.7824    0.0586 O.2       1 <1>        -0.1521 
     24 O24        15.1425   27.6801   -1.0202 O.2       1 <1>        -0.1521 
     25 N25        14.0694   25.8721   -2.4207 N.am      1 <1>        -0.2313 
     26 C26        15.3486   25.6434   -3.0793 C.3       1 <1>         0.0529 
     27 C27        15.1480   24.7311   -4.3154 C.3       1 <1>         0.0647 
     28 O28        14.4553   23.5509   -3.8790 O.3       1 <1>        -0.3766 
     29 C29        13.1152   23.8143   -3.4122 C.3       1 <1>         0.0647 
     30 C30        12.8494   25.2763   -2.9501 C.3       1 <1>         0.0529 
     31 H1          3.1860   30.3576   -1.6597 H         1 <1>         0.0663 
     32 H2          4.6894   28.3523   -1.6140 H         1 <1>         0.0683 
     33 H3          6.6129   32.9839   -1.3935 H         1 <1>         0.0683 
     34 H4          4.1355   32.6414   -1.5593 H         1 <1>         0.0663 
     35 H5          9.5586   27.8624    0.5442 H         1 <1>         0.0496 
     36 H6         11.7851   26.8173    0.7050 H         1 <1>         0.0599 
     37 H7          9.6036   30.2312   -3.6122 H         1 <1>         0.0630 
     38 H8         11.3400   30.8279   -5.2357 H         1 <1>         0.0590 
     39 H9         13.6396   29.9253   -4.9856 H         1 <1>         0.0614 
     40 H10        14.1797   28.4400   -3.1229 H         1 <1>         0.0599 
     41 H11        16.0192   25.1381   -2.3660 H         1 <1>         0.0501 
     42 H12        15.8119   26.5938   -3.3851 H         1 <1>         0.0501 
     43 H13        16.1272   24.4283   -4.7188 H         1 <1>         0.0576 
     44 H14        14.5907   25.2447   -5.1157 H         1 <1>         0.0576 
     45 H15        12.9627   23.1208   -2.5699 H         1 <1>         0.0576 
     46 H16        12.4021   23.5437   -4.2075 H         1 <1>         0.0576 
     47 H17        12.0312   25.2767   -2.2120 H         1 <1>         0.0501 
     48 H18        12.5296   25.8912   -3.8065 H         1 <1>         0.0501 
@<TRIPOS>BOND
     1    2    1 ar   
     2    2    3 ar   
     3    3    4 ar   
     4    4    5 ar   
     5    5    6 ar   
     6    1    6 ar   
     7    3    7 1    
     8    7    8 1    
     9    8    9 1    
    10    4    9 1    
    11    9   10 2    
    12    7   11 2    
    13    8   12 1    
    14   12   13 ar   
    15   13   14 ar   
    16   14   15 ar   
    17   15   16 ar   
    18   16   17 ar   
    19   12   17 ar   
    20   17   18 ar   
    21   18   19 ar   
    22   19   20 ar   
    23   20   21 ar   
    24   16   21 ar   
    25   15   22 1    
    26   22   23 2    
    27   22   24 2    
    28   22   25 1    
    29   25   26 1    
    30   26   27 1    
    31   27   28 1    
    32   28   29 1    
    33   29   30 1    
    34   25   30 1    
    35    1   31 1    
    36    2   32 1    
    37    5   33 1    
    38    6   34 1    
    39   13   35 1    
    40   14   36 1    
    41   18   37 1    
    42   19   38 1    
    43   20   39 1    
    44   21   40 1    
    45   26   41 1    
    46   26   42 1    
    47   27   43 1    
    48   27   44 1    
    49   29   45 1    
    50   29   46 1    
    51   30   47 1    
    52   30   48 1    
@<TRIPOS>SUBSTRUCTURE
     1 ****        2 TEMP              0 ****  ****    0 ROOT 
@<TRIPOS>NORMAL
@<TRIPOS>FF_PBC
FORCE_FIELD_SETUP_FEATURE Force Field Setup information
v1.0  0 0.000000 0.000000 0.000000 0.000000 0.000000 0.000000 NONE 0 0 0 0 1 0 0 0 0 0 0 0 0
