#	Name:			PISM00880
#	Creating user name:	baoopengkun
#	Creation time:		Sat Jan 12 21:44:40 2019

#	Modifying user name:	baoopengkun
#	Modification time:	Sat Jan 12 21:46:42 2019

@<TRIPOS>MOLECULE
PISM00880
   26    27     1     1     0
SMALL
GAST_HUCK


@<TRIPOS>ATOM
      1 C1         -4.9200   -7.0690   -4.0386 C.ar      1 <1>        -0.0406 
      2 C2         -5.8392   -7.1492   -5.0889 C.ar      1 <1>        -0.0559 
      3 C3         -6.4978   -8.3538   -5.3513 C.ar      1 <1>        -0.0573 
      4 C4         -6.2290   -9.4786   -4.5668 C.ar      1 <1>        -0.0559 
      5 C5         -5.3071   -9.3967   -3.5185 C.ar      1 <1>        -0.0406 
      6 C6         -4.6515   -8.1905   -3.2452 C.ar      1 <1>         0.0623 
      7 C7         -3.6626   -8.1005   -2.1021 C.2       1 <1>         0.2682 
      8 O8         -3.0674   -7.0538   -1.8982 O.2       1 <1>        -0.3565 
      9 O9         -3.4579   -9.1719   -1.3261 O.3       1 <1>        -0.2275 
     10 C10        -2.4671   -8.9710   -0.3028 C.3       1 <1>         0.2404 
     11 O11        -2.4311  -10.1848    0.4744 O.3       1 <1>        -0.2315 
     12 C12        -1.2277  -10.7027    0.2649 C.2       1 <1>         0.2494 
     13 C13        -0.3409   -9.9089   -0.5760 C.2       1 <1>         0.0291 
     14 C14        -1.0845   -8.8552   -0.9068 C.2       1 <1>        -0.0022 
     15 C15         1.0812  -10.2141   -0.9572 C.3       1 <1>        -0.0323 
     16 O16        -0.8876  -11.7670    0.7518 O.2       1 <1>        -0.3691 
     17 H1         -4.4154   -6.1286   -3.8423 H         1 <1>         0.0672 
     18 H2         -6.0421   -6.2759   -5.7013 H         1 <1>         0.0630 
     19 H3         -7.2157   -8.4160   -6.1635 H         1 <1>         0.0654 
     20 H4         -6.7365  -10.4169   -4.7719 H         1 <1>         0.0630 
     21 H5         -5.1033  -10.2779   -2.9183 H         1 <1>         0.0672 
     22 H6         -2.7072   -8.1253    0.3649 H         1 <1>         0.1195 
     23 H7         -0.7375   -8.0320   -1.5312 H         1 <1>         0.0705 
     24 H8          1.0942  -11.0433   -1.6800 H         1 <1>         0.0347 
     25 H9          1.6444  -10.5107   -0.0601 H         1 <1>         0.0347 
     26 H10         1.5670   -9.3361   -1.4078 H         1 <1>         0.0347 
@<TRIPOS>BOND
     1    2    1 ar   
     2    2    3 ar   
     3    3    4 ar   
     4    4    5 ar   
     5    5    6 ar   
     6    1    6 ar   
     7    6    7 1    
     8    7    8 2    
     9    7    9 1    
    10    9   10 1    
    11   10   11 1    
    12   11   12 1    
    13   12   13 1    
    14   13   14 2    
    15   10   14 1    
    16   13   15 1    
    17   12   16 2    
    18    1   17 1    
    19    2   18 1    
    20    3   19 1    
    21    4   20 1    
    22    5   21 1    
    23   10   22 1    
    24   14   23 1    
    25   15   24 1    
    26   15   25 1    
    27   15   26 1    
@<TRIPOS>SUBSTRUCTURE
     1 ****        2 TEMP              0 ****  ****    0 ROOT 
@<TRIPOS>NORMAL
@<TRIPOS>FF_PBC
FORCE_FIELD_SETUP_FEATURE Force Field Setup information
v1.0  0 0.000000 0.000000 0.000000 0.000000 0.000000 0.000000 NONE 0 0 0 0 1 0 0 0 0 0 0 0 0
