#	Name:			PISM00449
#	Creating user name:	baoopengkun
#	Creation time:		Wed Feb 27 21:17:59 2019

#	Modifying user name:	baoopengkun
#	Modification time:	Wed Feb 27 21:20:25 2019

@<TRIPOS>MOLECULE
PISM00449
   49    52     1     1     0
SMALL
GAST_HUCK


@<TRIPOS>ATOM
      1 O1         30.0025   11.6900   -9.3939 O.2       1 <1>        -0.4145 
      2 C2         30.8128   11.0257   -8.7696 C.2       1 <1>         0.0901 
      3 C3         32.0854   11.6763   -8.3081 C.3       1 <1>         0.0138 
      4 C4         33.1827   10.5932   -8.1968 C.3       1 <1>        -0.0238 
      5 C5         32.6936    9.4321   -7.2936 C.3       1 <1>         0.0138 
      6 C6         31.3921    8.8412   -7.8023 C.2       1 <1>         0.0640 
      7 C7         30.5298    9.6055   -8.4873 C.2       1 <1>         0.0198 
      8 N8         31.1553    7.5753   -7.5477 N.pl3     1 <1>        -0.2574 
      9 C9         30.0947    6.9386   -7.9880 C.2       1 <1>         0.0621 
     10 C10        29.1373    7.5591   -8.6942 C.2       1 <1>         0.0417 
     11 C11        29.2292    9.0299   -8.9717 C.3       1 <1>         0.0256 
     12 C12        28.0344    9.6705   -8.2464 C.ar      1 <1>        -0.0383 
     13 C13        28.1491   10.1278   -6.9271 C.ar      1 <1>        -0.0600 
     14 C14        27.0568   10.7174   -6.2840 C.ar      1 <1>        -0.0559 
     15 C15        25.8329   10.8318   -6.9476 C.ar      1 <1>         0.0316 
     16 C16        25.7078   10.3679   -8.2595 C.ar      1 <1>        -0.0559 
     17 C17        26.8063    9.7942   -8.9066 C.ar      1 <1>        -0.0600 
     18 Cl18       24.4579   11.5535   -6.1367 Cl        1 <1>        -0.0783 
     19 C19        27.9616    6.8556   -9.2409 C.2       1 <1>         0.1850 
     20 O20        27.8223    6.8896  -10.4520 O.2       1 <1>        -0.4018 
     21 N21        27.1141    6.2390   -8.4645 N.pl3     1 <1>        -0.2509 
     22 C22        26.0799    5.5416   -8.9924 C.ar      1 <1>         0.0894 
     23 C23        24.7772    5.7792   -8.5432 C.ar      1 <1>        -0.0432 
     24 C24        23.6977    5.1228   -9.1430 C.ar      1 <1>        -0.0426 
     25 C25        23.9190    4.2319  -10.1965 C.ar      1 <1>         0.1174 
     26 C26        25.2226    3.9589  -10.6181 C.ar      1 <1>        -0.0049 
     27 C27        26.3029    4.5783   -9.9858 C.ar      1 <1>         0.1512 
     28 F28        27.5436    4.2302  -10.3273 F         1 <1>        -0.1924 
     29 F29        22.8896    3.6405  -10.7970 F         1 <1>        -0.1947 
     30 C30        30.0294    5.4550   -7.6712 C.3       1 <1>        -0.0002 
     31 H1         31.9061   12.1650   -7.3379 H         1 <1>         0.0470 
     32 H2         32.3964   12.4436   -9.0364 H         1 <1>         0.0470 
     33 H3         34.1078   11.0340   -7.7883 H         1 <1>         0.0317 
     34 H4         33.4018   10.1994   -9.2041 H         1 <1>         0.0317 
     35 H5         32.5354    9.7802   -6.2608 H         1 <1>         0.0503 
     36 H6         33.4964    8.6760   -7.2862 H         1 <1>         0.0503 
     37 H7         31.8517    7.0439   -6.9984 H         1 <1>         0.2222 
     38 H8         29.1710    9.2007  -10.0586 H         1 <1>         0.0531 
     39 H9         29.0848   10.0294   -6.3867 H         1 <1>         0.0549 
     40 H10        27.1570   11.0867   -5.2682 H         1 <1>         0.0602 
     41 H11        24.7563   10.4541   -8.7750 H         1 <1>         0.0602 
     42 H12        26.6980    9.4420   -9.9279 H         1 <1>         0.0549 
     43 H13        27.2182    6.2945   -7.4406 H         1 <1>         0.2057 
     44 H14        24.6031    6.4791   -7.7321 H         1 <1>         0.0507 
     45 H15        22.6851    5.3032   -8.7961 H         1 <1>         0.0540 
     46 H16        25.3973    3.2640  -11.4321 H         1 <1>         0.0559 
     47 H17        30.9877    4.9792   -7.9280 H         1 <1>         0.0464 
     48 H18        29.2555    4.9096   -8.2279 H         1 <1>         0.0464 
     49 H19        29.8443    5.3227   -6.5947 H         1 <1>         0.0464 
@<TRIPOS>BOND
     1    2    1 2    
     2    2    3 1    
     3    3    4 1    
     4    4    5 1    
     5    6    5 1    
     6    7    6 2    
     7    2    7 1    
     8    6    8 1    
     9    8    9 1    
    10   10    9 2    
    11   11   10 1    
    12    7   11 1    
    13   11   12 1    
    14   12   13 ar   
    15   13   14 ar   
    16   14   15 ar   
    17   15   16 ar   
    18   17   16 ar   
    19   12   17 ar   
    20   15   18 1    
    21   10   19 1    
    22   19   20 2    
    23   19   21 1    
    24   21   22 1    
    25   22   23 ar   
    26   23   24 ar   
    27   24   25 ar   
    28   26   25 ar   
    29   27   26 ar   
    30   22   27 ar   
    31   27   28 1    
    32   25   29 1    
    33    9   30 1    
    34    3   31 1    
    35    3   32 1    
    36    4   33 1    
    37    4   34 1    
    38    5   35 1    
    39    5   36 1    
    40    8   37 1    
    41   11   38 1    
    42   13   39 1    
    43   14   40 1    
    44   16   41 1    
    45   17   42 1    
    46   21   43 1    
    47   23   44 1    
    48   24   45 1    
    49   26   46 1    
    50   30   47 1    
    51   30   48 1    
    52   30   49 1    
@<TRIPOS>SUBSTRUCTURE
     1 ****        2 TEMP              0 ****  ****    0 ROOT 
@<TRIPOS>NORMAL
@<TRIPOS>FF_PBC
FORCE_FIELD_SETUP_FEATURE Force Field Setup information
v1.0  0 0.000000 0.000000 0.000000 0.000000 0.000000 0.000000 NONE 0 0 0 0 1 0 0 0 0 0 0 0 0
