#	Name:			PISM00375
#	Creating user name:	baoopengkun
#	Creation time:		Sun Mar 31 21:57:26 2019

#	Modifying user name:	baoopengkun
#	Modification time:	Sun Mar 31 22:00:19 2019

@<TRIPOS>MOLECULE
PISM00375
   56    57     1     1     0
SMALL
GAST_HUCK


@<TRIPOS>ATOM
      1 H1         14.7069   -0.3298   -3.5794 H         1 <1>         0.0618 
      2 C2         14.0090    0.3778   -4.0159 C.ar      1 <1>        -0.0617 
      3 C3         14.2668    1.7502   -3.9430 C.ar      1 <1>        -0.0606 
      4 C4         13.3677    2.6601   -4.5071 C.ar      1 <1>        -0.0463 
      5 C5         12.2115    2.1990   -5.1445 C.ar      1 <1>         0.0250 
      6 C6         11.9539    0.8270   -5.2164 C.ar      1 <1>        -0.0463 
      7 C7         12.8522   -0.0830   -4.6524 C.ar      1 <1>        -0.0606 
      8 C8         11.2883    3.1444   -5.7199 C.1       1 <1>        -0.0640 
      9 C9         10.5244    3.9487   -6.1851 C.1       1 <1>        -0.0683 
     10 C10         9.6168    4.9523   -6.7230 C.3       1 <1>         0.1143 
     11 O11         8.2781    4.4102   -6.7981 O.3       1 <1>        -0.3384 
     12 C12         7.2667    5.2305   -6.1691 C.3       1 <1>         0.1161 
     13 C13         7.1189    6.6480   -6.8033 C.3       1 <1>        -0.0149 
     14 C14         5.9263    6.7463   -7.7965 C.3       1 <1>        -0.0599 
     15 C15         4.6195    6.2692   -7.0776 C.3       1 <1>         0.0164 
     16 C16         4.7820    4.8760   -6.5049 C.2       1 <1>        -0.0800 
     17 C17         5.9872    4.4281   -6.1270 C.2       1 <1>        -0.0120 
     18 C18         3.5416    4.0253   -6.3304 C.3       1 <1>        -0.0473 
     19 C19         6.2350    5.8716   -9.0528 C.3       1 <1>        -0.0740 
     20 C20         5.7948    8.2329   -8.2493 C.3       1 <1>        -0.0740 
     21 C21         3.4388    6.4769   -8.0003 C.2       1 <1>        -0.1031 
     22 C22         2.9922    5.6245   -8.9339 C.2       1 <1>        -0.0274 
     23 C23         1.8001    5.8815   -9.7866 C.2       1 <1>         0.0135 
     24 C24         0.8966    7.0479   -9.4313 C.3       1 <1>        -0.0153 
     25 C25         1.4845    5.1144  -10.8454 C.2       1 <1>         0.0548 
     26 C26         2.2238    3.9510  -11.3872 C.2       1 <1>         0.2661 
     27 O27         3.4364    3.8875  -11.2954 O.2       1 <1>        -0.3516 
     28 O28         1.5941    2.9428  -12.0033 O.3       1 <1>        -0.2932 
     29 O29         4.2849    7.0893   -5.9386 O.3       1 <1>        -0.4739 
     30 H2         15.1651    2.1081   -3.4488 H         1 <1>         0.0618 
     31 H3         13.5674    3.7254   -4.4484 H         1 <1>         0.0630 
     32 H4         11.0550    0.4700   -5.7093 H         1 <1>         0.0630 
     33 H5         12.6522   -1.1492   -4.7086 H         1 <1>         0.0618 
     34 H6          9.9582    5.2309   -7.7310 H         1 <1>         0.0702 
     35 H7          9.7411    5.8195   -6.0530 H         1 <1>         0.0702 
     36 H8          7.5567    5.3435   -5.1091 H         1 <1>         0.0935 
     37 H9          8.0433    6.9419   -7.3225 H         1 <1>         0.0325 
     38 H10         6.9827    7.3922   -6.0036 H         1 <1>         0.0325 
     39 H11         6.0740    3.4130   -5.7442 H         1 <1>         0.1201 
     40 H12         3.6025    3.4512   -5.3941 H         1 <1>         0.0360 
     41 H13         3.4306    3.3072   -7.1549 H         1 <1>         0.0360 
     42 H14         2.6373    4.6459   -6.2687 H         1 <1>         0.0360 
     43 H15         7.2256    6.1204   -9.4642 H         1 <1>         0.0219 
     44 H16         5.5028    6.0493   -9.8526 H         1 <1>         0.0219 
     45 H17         6.2299    4.7977   -8.8146 H         1 <1>         0.0219 
     46 H18         5.0095    8.3589   -9.0091 H         1 <1>         0.0219 
     47 H19         5.5474    8.8770   -7.3941 H         1 <1>         0.0219 
     48 H20         6.7402    8.5848   -8.6884 H         1 <1>         0.0219 
     49 H21         2.9397    7.4332   -7.8569 H         1 <1>         0.0477 
     50 H22         3.5408    4.6955   -9.0604 H         1 <1>         0.1020 
     51 H23         0.5948    6.9592   -8.3763 H         1 <1>         0.0428 
     52 H24        -0.0240    7.1053  -10.0319 H         1 <1>         0.0428 
     53 H25         1.4439    7.9900   -9.5788 H         1 <1>         0.0428 
     54 H26         0.5809    5.3398  -11.4079 H         1 <1>         0.0888 
     55 H27         0.6489    3.0213  -12.0287 H         1 <1>         0.2516 
     56 H28         4.8696    7.0137   -5.1943 H         1 <1>         0.1784 
@<TRIPOS>BOND
     1    2    1 1    
     2    2    3 ar   
     3    3    4 ar   
     4    4    5 ar   
     5    5    6 ar   
     6    6    7 ar   
     7    2    7 ar   
     8    5    8 1    
     9    8    9 3    
    10    9   10 1    
    11   10   11 1    
    12   11   12 1    
    13   12   13 1    
    14   13   14 1    
    15   14   15 1    
    16   15   16 1    
    17   16   17 2    
    18   12   17 1    
    19   16   18 1    
    20   14   19 1    
    21   14   20 1    
    22   15   21 1    
    23   21   22 2    
    24   22   23 1    
    25   23   24 1    
    26   23   25 2    
    27   25   26 1    
    28   26   27 2    
    29   26   28 1    
    30   15   29 1    
    31    3   30 1    
    32    4   31 1    
    33    6   32 1    
    34    7   33 1    
    35   10   34 1    
    36   10   35 1    
    37   12   36 1    
    38   13   37 1    
    39   13   38 1    
    40   17   39 1    
    41   18   40 1    
    42   18   41 1    
    43   18   42 1    
    44   19   43 1    
    45   19   44 1    
    46   19   45 1    
    47   20   46 1    
    48   20   47 1    
    49   20   48 1    
    50   21   49 1    
    51   22   50 1    
    52   24   51 1    
    53   24   52 1    
    54   24   53 1    
    55   25   54 1    
    56   28   55 1    
    57   29   56 1    
@<TRIPOS>SUBSTRUCTURE
     1 ****        2 TEMP              0 ****  ****    0 ROOT 
@<TRIPOS>NORMAL
@<TRIPOS>FF_PBC
FORCE_FIELD_SETUP_FEATURE Force Field Setup information
v1.0  0 0.000000 0.000000 0.000000 0.000000 0.000000 0.000000 NONE 0 0 0 0 1 0 0 0 0 0 0 0 0
