#	Name:			PISM01026
#	Creating user name:	14062
#	Creation time:		Sat Oct 19 23:50:29 2019

#	Modifying user name:	14062
#	Modification time:	Sat Oct 19 23:59:33 2019

@<TRIPOS>MOLECULE
PISM01026
   28    30     2     1     0
SMALL
GAST_HUCK


@<TRIPOS>ATOM
      1 C1          2.3848    0.1935   -4.3891 C.2       1 BENZYL      0.3377 
      2 N2          3.4290    0.6711   -3.7543 N.pl3     1 BENZYL     -0.1538 
      3 C2          4.6466    0.7950   -4.3546 C.ar      1 BENZYL      0.1073 
      4 C3          4.8283    0.3365   -5.6628 C.ar      1 BENZYL      0.0812 
      5 C4          6.0756    0.3801   -6.2926 C.ar      1 BENZYL     -0.0502 
      6 C5          7.1701    0.9219   -5.6155 C.ar      1 BENZYL     -0.0672 
      7 C6          6.9986    1.4298   -4.3255 C.ar      1 BENZYL     -0.0664 
      8 C7          5.7446    1.3828   -3.7078 C.ar      1 BENZYL     -0.0291 
      9 N9          2.4585   -0.2252   -5.6666 N.am      1 BENZYL     -0.1772 
     10 C10         3.6041   -0.2013   -6.3579 C.2       1 BENZYL      0.2276 
     11 O11         3.6679   -0.5966   -7.5094 O.2       1 BENZYL     -0.3830 
     12 O12         1.3040    0.1076   -3.8292 O.2       1 BENZYL     -0.3710 
     13 H1          6.1944   -0.0032   -7.3013 H         1 BENZYL      0.0640 
     14 C2          3.2678    1.0356   -2.4588 C.ar      2 BENZYL      0.0878 
     15 C3          2.4903    2.1514   -2.1343 C.ar      2 BENZYL     -0.0212 
     16 C4          2.3351    2.5337   -0.7992 C.ar      2 BENZYL      0.0317 
     17 C5          2.9542    1.7974    0.2147 C.ar      2 BENZYL     -0.0590 
     18 C6          3.7243    0.6756   -0.1058 C.ar      2 BENZYL     -0.0702 
     19 C7          3.8761    0.2928   -1.4416 C.ar      2 BENZYL     -0.0349 
     20 H2          8.1469    0.9499   -6.0894 H         1 BENZYL      0.0535 
     21 H3          7.8450    1.8646   -3.8015 H         1 BENZYL      0.0624 
     22 H4          5.6500    1.8190   -2.7194 H         1 BENZYL      0.0554 
     23 H5          1.6375   -0.5783   -6.1134 H         1 BENZYL      0.2271 
     24 H6          2.0077    2.7223   -2.9202 H         2 BENZYL      0.0548 
     25 Cl25        1.3652    3.9358   -0.3971 Cl        2 BENZYL     -0.0736 
     26 H7          2.8351    2.0981    1.2507 H         2 BENZYL      0.0529 
     27 H8          4.2033    0.1020    0.6821 H         2 BENZYL      0.0589 
     28 H9          4.4663   -0.5828   -1.6922 H         2 BENZYL      0.0545 
@<TRIPOS>BOND
     1    2    3 1    
     2    3    4 ar   
     3    3    8 ar   
     4    8    7 ar   
     5    7    6 ar   
     6    6    5 ar   
     7    5    4 ar   
     8    2    1 1    
     9    1    9 am   
    10    9   10 am   
    11    4   10 1    
    12   10   11 2    
    13    1   12 2    
    14   14    2 1    
    15   14   15 ar   
    16   14   19 ar   
    17   19   18 ar   
    18   18   17 ar   
    19   17   16 ar   
    20   16   15 ar   
    21    5   13 1    
    22    6   20 1    
    23    7   21 1    
    24    8   22 1    
    25    9   23 1    
    26   15   24 1    
    27   16   25 1    
    28   17   26 1    
    29   18   27 1    
    30   19   28 1    
@<TRIPOS>SUBSTRUCTURE
     1 BENZYL      2 PERM              0 ****  ****    1  
     2 BENZYL     14 PERM              0 ****  ****    1 ROOT 
@<TRIPOS>NORMAL
@<TRIPOS>FF_PBC
FORCE_FIELD_SETUP_FEATURE Force Field Setup information
v1.0  0 0.000000 0.000000 0.000000 0.000000 0.000000 0.000000 NONE 0 0 0 0 1 0 0 0 0 0 0 0 0
