#	Name:			PISM00303
#	Creating user name:	malab
#	Creation time:		Fri Apr 05 17:04:19 2019

#	Modifying user name:	malab
#	Modification time:	Fri Apr 05 17:04:29 2019

@<TRIPOS>MOLECULE
PISM00303
   68    69     1     1     0
SMALL
GAST_HUCK


@<TRIPOS>ATOM
      1 N1        -18.1049   30.3297   45.1622 N.2       1 <1>        -0.1722 
      2 C2        -17.4428   31.2035   44.5025 C.2       1 <1>         0.0658 
      3 N3        -16.9216   30.3774   43.4542 N.2       1 <1>        -0.2821 
      4 C4        -17.3019   29.1903   43.5951 C.2       1 <1>         0.1497 
      5 N5        -18.0540   29.0623   44.6539 N.pl3     1 <1>        -0.1217 
      6 C6        -18.6392   27.9863   45.1262 C.2       1 <1>         0.1373 
      7 C7        -19.4322   28.2163   46.4090 C.3       1 <1>         0.1335 
      8 C8        -18.5748   28.1340   47.7201 C.3       1 <1>         0.0047 
      9 C9        -17.3952   29.1520   47.7370 C.3       1 <1>        -0.0552 
     10 C10       -19.4925   28.4206   48.9474 C.3       1 <1>        -0.0552 
     11 C11       -17.9799   26.7022   47.8734 C.3       1 <1>        -0.0552 
     12 C12       -18.5500   26.7796   44.5365 C.2       1 <1>        -0.0334 
     13 C13       -19.2517   25.5327   45.0285 C.ar      1 <1>        -0.0498 
     14 C14       -20.6478   25.4452   45.0194 C.ar      1 <1>        -0.0677 
     15 C15       -21.2842   24.3157   45.5420 C.ar      1 <1>        -0.0696 
     16 C16       -20.5243   23.2575   46.0486 C.ar      1 <1>        -0.0549 
     17 C17       -19.1285   23.3228   46.0155 C.ar      1 <1>         0.0160 
     18 C18       -18.4944   24.4484   45.4821 C.ar      1 <1>        -0.0526 
     19 C19       -18.3429   22.2328   46.5351 C.1       1 <1>        -0.0662 
     20 C20       -17.6869   21.3246   46.9749 C.1       1 <1>        -0.0688 
     21 C21       -16.8945   20.2279   47.5155 C.3       1 <1>         0.1087 
     22 O22       -16.3341   19.4791   46.4195 O.3       1 <1>        -0.3650 
     23 C23       -15.5280   18.3631   46.8502 C.3       1 <1>         0.0722 
     24 C24       -14.9787   17.6320   45.6047 C.3       1 <1>         0.0711 
     25 O25       -14.1756   16.5205   46.0522 O.3       1 <1>        -0.3752 
     26 C26       -13.6020   15.7570   44.9713 C.3       1 <1>         0.0711 
     27 C27       -12.7694   14.6050   45.5774 C.3       1 <1>         0.0711 
     28 O28       -12.1836   13.8419   44.5025 O.3       1 <1>        -0.3752 
     29 C29       -11.3787   12.7365   44.9626 C.3       1 <1>         0.0711 
     30 C30       -10.8004   12.0005   43.7333 C.3       1 <1>         0.0706 
     31 O31        -9.9924   10.8986   44.1964 O.3       1 <1>        -0.3807 
     32 C32        -9.3970   10.1409   43.1258 C.3       1 <1>         0.0365 
     33 O33       -20.2132   29.4246   46.3369 O.3       1 <1>        -0.3711 
     34 H1        -17.3144   32.2694   44.6863 H         1 <1>         0.0882 
     35 H2        -16.9820   28.4492   42.8659 H         1 <1>         0.1391 
     36 H3        -20.2114   27.4516   46.5151 H         1 <1>         0.0852 
     37 H4        -16.7091   28.9773   46.8952 H         1 <1>         0.0238 
     38 H5        -16.8137   29.0472   48.6659 H         1 <1>         0.0238 
     39 H6        -17.7583   30.1888   47.6927 H         1 <1>         0.0238 
     40 H7        -20.3255   27.7022   48.9900 H         1 <1>         0.0238 
     41 H8        -19.9152   29.4352   48.8899 H         1 <1>         0.0238 
     42 H9        -18.9259   28.3418   49.8880 H         1 <1>         0.0238 
     43 H10       -18.7756   25.9415   47.8706 H         1 <1>         0.0238 
     44 H11       -17.4267   26.6071   48.8203 H         1 <1>         0.0238 
     45 H12       -17.2798   26.4864   47.0534 H         1 <1>         0.0238 
     46 H13       -17.9593   26.5861   43.6458 H         1 <1>         0.0310 
     47 H14       -21.2405   26.2537   44.6023 H         1 <1>         0.0543 
     48 H15       -22.3685   24.2599   45.5538 H         1 <1>         0.0595 
     49 H16       -21.0178   22.3855   46.4661 H         1 <1>         0.0559 
     50 H17       -17.4112   24.4805   45.4248 H         1 <1>         0.0553 
     51 H18       -17.5602   19.6036   48.1317 H         1 <1>         0.0697 
     52 H19       -16.1067   20.6628   48.1501 H         1 <1>         0.0697 
     53 H20       -16.1249   17.6483   47.4403 H         1 <1>         0.0583 
     54 H21       -14.6752   18.7038   47.4602 H         1 <1>         0.0583 
     55 H22       -14.3788   18.3433   45.0134 H         1 <1>         0.0583 
     56 H23       -15.8287   17.2876   44.9930 H         1 <1>         0.0583 
     57 H24       -12.9387   16.3830   44.3521 H         1 <1>         0.0583 
     58 H25       -14.3871   15.3254   44.3291 H         1 <1>         0.0583 
     59 H26       -13.4339   13.9766   46.1930 H         1 <1>         0.0583 
     60 H27       -11.9896   15.0389   46.2246 H         1 <1>         0.0583 
     61 H28       -11.9820   12.0235   45.5480 H         1 <1>         0.0583 
     62 H29       -10.5405   13.0890   45.5858 H         1 <1>         0.0583 
     63 H30       -10.1983   12.7142   43.1473 H         1 <1>         0.0582 
     64 H31       -11.6369   11.6439   43.1103 H         1 <1>         0.0582 
     65 H32        -8.7242   10.7669   42.5191 H         1 <1>         0.0524 
     66 H33       -10.1656    9.6934   42.4766 H         1 <1>         0.0524 
     67 H34        -8.8057    9.3293   43.5749 H         1 <1>         0.0524 
     68 H35       -19.6753   30.1996   46.2072 H         1 <1>         0.2142 
@<TRIPOS>BOND
     1    1    2 2    
     2    2    3 1    
     3    3    4 2    
     4    4    5 1    
     5    5    1 1    
     6    5    6 1    
     7    6    7 1    
     8    7    8 1    
     9    8    9 1    
    10    8   10 1    
    11    8   11 1    
    12    6   12 2    
    13   12   13 1    
    14   13   14 ar   
    15   14   15 ar   
    16   15   16 ar   
    17   16   17 ar   
    18   17   18 ar   
    19   18   13 ar   
    20   17   19 1    
    21   19   20 3    
    22   20   21 1    
    23   21   22 1    
    24   22   23 1    
    25   23   24 1    
    26   24   25 1    
    27   25   26 1    
    28   26   27 1    
    29   27   28 1    
    30   28   29 1    
    31   29   30 1    
    32   30   31 1    
    33   31   32 1    
    34    7   33 1    
    35    2   34 1    
    36    4   35 1    
    37    7   36 1    
    38    9   37 1    
    39    9   38 1    
    40    9   39 1    
    41   10   40 1    
    42   10   41 1    
    43   10   42 1    
    44   11   43 1    
    45   11   44 1    
    46   11   45 1    
    47   12   46 1    
    48   14   47 1    
    49   15   48 1    
    50   16   49 1    
    51   18   50 1    
    52   21   51 1    
    53   21   52 1    
    54   23   53 1    
    55   23   54 1    
    56   24   55 1    
    57   24   56 1    
    58   26   57 1    
    59   26   58 1    
    60   27   59 1    
    61   27   60 1    
    62   29   61 1    
    63   29   62 1    
    64   30   63 1    
    65   30   64 1    
    66   32   65 1    
    67   32   66 1    
    68   32   67 1    
    69   33   68 1    
@<TRIPOS>SUBSTRUCTURE
     1 ****       20 TEMP              0 ****  ****    0 ROOT 
@<TRIPOS>NORMAL
@<TRIPOS>FF_PBC
FORCE_FIELD_SETUP_FEATURE Force Field Setup information
v1.0  0 0.000000 0.000000 0.000000 0.000000 0.000000 0.000000 NONE 0 0 0 0 1 0 0 0 0 0 0 0 0
