#	Name:			PISM00731
#	Creating user name:	baoopengkun
#	Creation time:		Sun Jan 20 22:12:58 2019

#	Modifying user name:	baoopengkun
#	Modification time:	Sun Jan 20 22:13:23 2019

@<TRIPOS>MOLECULE
PISM00731
   82    85     1     1     0
SMALL
GAST_HUCK


@<TRIPOS>ATOM
      1 C1         -5.7044    8.3722   -1.2407 C.3       1 <1>        -0.0163 
      2 C2         -7.0209    7.5582   -1.0738 C.3       1 <1>         0.0819 
      3 C3         -7.0624    6.8396    0.3027 C.3       1 <1>         0.0835 
      4 C4         -6.8814    7.8652    1.4554 C.3       1 <1>        -0.0028 
      5 C5         -5.5289    8.6092    1.2623 C.3       1 <1>         0.0681 
      6 C6         -5.4419    9.3977   -0.0910 C.3       1 <1>        -0.0055 
      7 C7         -4.0237   10.0851   -0.2261 C.3       1 <1>        -0.0276 
      8 C8         -2.8528    9.2348    0.3684 C.3       1 <1>        -0.0063 
      9 C9         -2.8488    9.2991    1.9366 C.3       1 <1>         0.0801 
     10 O10        -3.9411    9.9771    2.6045 O.3       1 <1>        -0.2763 
     11 C11        -5.1964    9.5404    2.3988 C.2       1 <1>         0.2374 
     12 O12        -6.0818    9.9312    3.1422 O.2       1 <1>        -0.3701 
     13 C13        -3.6513   10.5822   -1.6571 C.3       1 <1>        -0.0487 
     14 C14        -2.3989   11.5205   -1.6359 C.3       1 <1>        -0.0468 
     15 C15        -1.2425   11.0523   -0.6819 C.3       1 <1>        -0.0257 
     16 C16        -1.4960    9.5570   -0.3484 C.3       1 <1>        -0.0298 
     17 C17        -0.1753    9.0180    0.2535 C.3       1 <1>        -0.0491 
     18 C18         0.9093    9.8729   -0.4632 C.3       1 <1>        -0.0491 
     19 C19         0.1770   10.9366   -1.3465 C.3       1 <1>        -0.0304 
     20 O20        -7.1275    6.5644   -2.1121 O.3       1 <1>        -0.3892 
     21 O21        -6.0102    5.8540    0.3518 O.3       1 <1>        -0.3891 
     22 C22         5.5028   12.4469   -1.0007 C.3       1 <1>         0.1111 
     23 C23        -6.5278   10.5315   -0.1326 C.3       1 <1>        -0.0568 
     24 C24        -1.1701   11.9420    0.6015 C.3       1 <1>        -0.0590 
     25 C25         1.0299   12.2365   -1.5690 C.3       1 <1>        -0.0120 
     26 C26         2.4253   11.8866   -2.1977 C.3       1 <1>         0.0842 
     27 C27         3.3882   13.1066   -2.3831 C.3       1 <1>         0.0867 
     28 C28         4.8915   12.6596   -2.4329 C.3       1 <1>         0.0180 
     29 F29         4.5506   11.9683   -0.1543 F         1 <1>        -0.2421 
     30 C30         6.6414   11.3879   -1.0022 C.3       1 <1>        -0.0309 
     31 C31         6.0043   13.7605   -0.3366 C.3       1 <1>        -0.0309 
     32 C32         0.2720   13.3050   -2.4107 C.3       1 <1>        -0.0597 
     33 O33         2.2943   11.1816   -3.4450 O.3       1 <1>        -0.3890 
     34 O34         2.9685   13.7463   -3.6074 O.3       1 <1>        -0.3889 
     35 C35         5.7739   13.6033   -3.3039 C.3       1 <1>        -0.0571 
     36 H1         -5.7610    8.8971   -2.2065 H         1 <1>         0.0298 
     37 H2         -4.8788    7.6476   -1.2997 H         1 <1>         0.0298 
     38 H3         -7.9037    8.2137   -1.1584 H         1 <1>         0.0619 
     39 H4         -8.0385    6.3285    0.3919 H         1 <1>         0.0621 
     40 H5         -6.8653    7.3198    2.4145 H         1 <1>         0.0319 
     41 H6         -7.7379    8.5513    1.5062 H         1 <1>         0.0319 
     42 H7         -4.8148    7.7795    1.3102 H         1 <1>         0.0560 
     43 H8         -4.0631   11.0132    0.3612 H         1 <1>         0.0311 
     44 H9         -3.0068    8.1797    0.0889 H         1 <1>         0.0332 
     45 H10        -2.0080    9.9030    2.2926 H         1 <1>         0.0616 
     46 H11        -2.7101    8.2976    2.3775 H         1 <1>         0.0616 
     47 H12        -4.4704   11.1487   -2.1243 H         1 <1>         0.0268 
     48 H13        -3.4705    9.7142   -2.3099 H         1 <1>         0.0268 
     49 H14        -2.7424   12.5216   -1.3275 H         1 <1>         0.0271 
     50 H15        -2.0461   11.6074   -2.6758 H         1 <1>         0.0271 
     51 H16        -1.5277    9.0431   -1.3292 H         1 <1>         0.0310 
     52 H17        -0.0552    7.9364    0.0677 H         1 <1>         0.0268 
     53 H18        -0.1024    9.1655    1.3400 H         1 <1>         0.0268 
     54 H19         1.5572    9.2256   -1.0780 H         1 <1>         0.0268 
     55 H20         1.5412   10.3643    0.2954 H         1 <1>         0.0268 
     56 H21         0.0426   10.4913   -2.3481 H         1 <1>         0.0310 
     57 H22        -7.1239    6.9287   -2.9919 H         1 <1>         0.2099 
     58 H23        -6.0194    5.3281    1.1454 H         1 <1>         0.2099 
     59 H24        -6.4899   11.0917   -1.0752 H         1 <1>         0.0237 
     60 H25        -6.3775   11.2512    0.6858 H         1 <1>         0.0237 
     61 H26        -7.5587   10.1767   -0.0433 H         1 <1>         0.0237 
     62 H27        -0.3891   11.6041    1.2960 H         1 <1>         0.0235 
     63 H28        -2.1216   11.9615    1.1448 H         1 <1>         0.0235 
     64 H29        -0.9485   12.9857    0.3438 H         1 <1>         0.0235 
     65 H30         1.2372   12.6832   -0.5830 H         1 <1>         0.0327 
     66 H31         2.9127   11.1596   -1.5382 H         1 <1>         0.0622 
     67 H32         3.2455   13.8034   -1.5407 H         1 <1>         0.0623 
     68 H33         4.9005   11.6903   -2.9584 H         1 <1>         0.0354 
     69 H34         6.2666   10.4292   -1.3914 H         1 <1>         0.0260 
     70 H35         6.9994   11.2165    0.0242 H         1 <1>         0.0260 
     71 H36         7.4958   11.7068   -1.6158 H         1 <1>         0.0260 
     72 H37         6.2745   13.5659    0.7127 H         1 <1>         0.0260 
     73 H38         5.2196   14.5306   -0.3453 H         1 <1>         0.0260 
     74 H39         6.8966   14.1555   -0.8447 H         1 <1>         0.0260 
     75 H40         0.0474   12.9268   -3.4180 H         1 <1>         0.0233 
     76 H41         0.8602   14.2282   -2.5025 H         1 <1>         0.0233 
     77 H42        -0.6725   13.5976   -1.9386 H         1 <1>         0.0233 
     78 H43         2.0128   11.7660   -4.1419 H         1 <1>         0.2099 
     79 H44         3.3491   14.6062   -3.7532 H         1 <1>         0.2099 
     80 H45         6.8293   13.2966   -3.2850 H         1 <1>         0.0234 
     81 H46         5.7060   14.6427   -2.9501 H         1 <1>         0.0234 
     82 H47         5.4507   13.5743   -4.3564 H         1 <1>         0.0234 
@<TRIPOS>BOND
     1    1    2 1    
     2    2    3 1    
     3    4    3 1    
     4    5    4 1    
     5    6    5 1    
     6    6    1 1    
     7    7    6 1    
     8    8    7 1    
     9    8    9 1    
    10    9   10 1    
    11   10   11 1    
    12   11   12 2    
    13   11    5 1    
    14   13    7 1    
    15   14   13 1    
    16   15   14 1    
    17   15   16 1    
    18   16    8 1    
    19   16   17 1    
    20   18   17 1    
    21   19   18 1    
    22   19   15 1    
    23    2   20 1    
    24    3   21 1    
    25   28   22 1    
    26    6   23 1    
    27   15   24 1    
    28   25   19 1    
    29   26   25 1    
    30   27   26 1    
    31   27   28 1    
    32   22   29 1    
    33   22   30 1    
    34   22   31 1    
    35   25   32 1    
    36   26   33 1    
    37   27   34 1    
    38   28   35 1    
    39    1   36 1    
    40    1   37 1    
    41    2   38 1    
    42    3   39 1    
    43    4   40 1    
    44    4   41 1    
    45    5   42 1    
    46    7   43 1    
    47    8   44 1    
    48    9   45 1    
    49    9   46 1    
    50   13   47 1    
    51   13   48 1    
    52   14   49 1    
    53   14   50 1    
    54   16   51 1    
    55   17   52 1    
    56   17   53 1    
    57   18   54 1    
    58   18   55 1    
    59   19   56 1    
    60   20   57 1    
    61   21   58 1    
    62   23   59 1    
    63   23   60 1    
    64   23   61 1    
    65   24   62 1    
    66   24   63 1    
    67   24   64 1    
    68   25   65 1    
    69   26   66 1    
    70   27   67 1    
    71   28   68 1    
    72   30   69 1    
    73   30   70 1    
    74   30   71 1    
    75   31   72 1    
    76   31   73 1    
    77   31   74 1    
    78   32   75 1    
    79   32   76 1    
    80   32   77 1    
    81   33   78 1    
    82   34   79 1    
    83   35   80 1    
    84   35   81 1    
    85   35   82 1    
@<TRIPOS>SUBSTRUCTURE
     1 ****        2 TEMP              0 ****  ****    0 ROOT 
@<TRIPOS>NORMAL
@<TRIPOS>FF_PBC
FORCE_FIELD_SETUP_FEATURE Force Field Setup information
v1.0  0 0.000000 0.000000 0.000000 0.000000 0.000000 0.000000 NONE 0 0 0 0 1 0 0 0 0 0 0 0 0
