#	Name:			PISM00662
#	Creating user name:	baoopengkun
#	Creation time:		Fri Jan 25 19:54:47 2019

#	Modifying user name:	baoopengkun
#	Modification time:	Fri Jan 25 19:57:19 2019

@<TRIPOS>MOLECULE
PISM00662
  204   211     1     1     0
SMALL
GAST_HUCK


@<TRIPOS>ATOM
      1 C1         12.3133    3.4606  -36.2989 C.3       1 <1>        -0.0164 
      2 C2         13.1344    4.6924  -35.8092 C.3       1 <1>         0.0819 
      3 C3         14.5972    4.7124  -36.3493 C.3       1 <1>         0.0834 
      4 C4         14.6720    4.4108  -37.8693 C.3       1 <1>        -0.0089 
      5 C5         13.8823    3.1235  -38.2169 C.3       1 <1>         0.0149 
      6 C6         12.3631    3.2112  -37.8456 C.3       1 <1>        -0.0115 
      7 C7         11.7382    1.8219  -38.2585 C.3       1 <1>        -0.0281 
      8 C8         12.0321    1.4843  -39.7621 C.3       1 <1>        -0.0221 
      9 C9         13.5541    1.2910  -39.9777 C.3       1 <1>        -0.0013 
     10 C10        14.0849    2.6782  -39.6439 C.2       1 <1>         0.0283 
     11 C11        10.2656    1.4597  -37.8320 C.3       1 <1>        -0.0486 
     12 C12         9.1787    1.4773  -38.9496 C.3       1 <1>        -0.0468 
     13 C13         9.6257    0.8562  -40.3201 C.3       1 <1>        -0.0256 
     14 C14        11.0984    0.3386  -40.2069 C.3       1 <1>        -0.0302 
     15 C15        11.3316   -0.4149  -41.5352 C.3       1 <1>        -0.0490 
     16 C16         9.9472   -1.1010  -41.7881 C.3       1 <1>        -0.0491 
     17 C17         8.9507   -0.4900  -40.7495 C.3       1 <1>        -0.0304 
     18 C18         7.3932   -0.5265  -41.0216 C.3       1 <1>        -0.0120 
     19 C19         6.7818   -0.4488  -42.4770 C.3       1 <1>         0.0841 
     20 C20         6.7410   -1.7118  -43.4115 C.3       1 <1>         0.0841 
     21 C21         5.8267   -1.5789  -44.6923 C.3       1 <1>        -0.0130 
     22 C22         6.2283   -2.6122  -45.8054 C.3       1 <1>        -0.0417 
     23 C23         5.3380   -2.4927  -47.0805 C.3       1 <1>        -0.0623 
     24 C24         6.1822   -4.0830  -45.3012 C.3       1 <1>        -0.0623 
     25 N25        14.6390    3.5054  -40.4420 N.2       1 <1>        -0.2008 
     26 O26        14.8240    2.8780  -41.6860 O.3       1 <1>        -0.2536 
     27 C27        16.2226    2.5948  -41.8366 C.3       1 <1>         0.1688 
     28 C28        16.5123    1.5912  -42.9222 C.2       1 <1>         0.2077 
     29 O29        15.7155    1.4065  -43.8283 O.2       1 <1>        -0.3941 
     30 N30        17.6829    0.9172  -42.8503 N.am      1 <1>        -0.2847 
     31 C31        18.0029   -0.0960  -43.8489 C.3       1 <1>         0.0310 
     32 C32        19.4774   -0.5462  -43.6827 C.3       1 <1>        -0.0327 
     33 C33        19.8731   -1.6325  -44.7133 C.3       1 <1>        -0.0494 
     34 C34        21.3884   -1.9444  -44.6021 C.3       1 <1>        -0.0327 
     35 C35        21.8153   -3.0257  -45.6245 C.3       1 <1>         0.0309 
     36 N36        23.2655   -3.1791  -45.6646 N.am      1 <1>        -0.2870 
     37 C37        23.7981   -4.0415  -46.5543 C.2       1 <1>         0.1760 
     38 O38        23.0820   -4.7144  -47.2776 O.2       1 <1>        -0.3971 
     39 C39        25.2979   -4.1604  -46.6653 C.3       1 <1>         0.0372 
     40 C40        25.6828   -5.5256  -47.2863 C.3       1 <1>        -0.0361 
     41 C41        27.2003   -5.6466  -47.5903 C.3       1 <1>        -0.0530 
     42 C42        27.5169   -7.1345  -47.8851 C.3       1 <1>        -0.0748 
     43 C43        28.9261   -7.3768  -48.4991 C.3       1 <1>        -0.1320 
     44 C44        29.3516   -8.8692  -48.3223 C.3       1 <1>        -0.1052 
     45 C45        30.5821   -9.2691  -49.1767 C.3       1 <1>        -0.1440 
     46 C46        28.1537   -9.7452  -48.6558 C.ar      1 <1>        -0.1160 
     47 C47        27.7800  -10.4080  -47.5013 C.ar      1 <1>         0.0540 
     48 N48        28.6207  -10.1149  -46.4822 N.pl3     1 <1>        -0.2719 
     49 C49        29.4975   -9.1975  -46.8338 C.2       1 <1>        -0.0186 
     50 C50        27.4513   -9.8819  -49.8526 C.ar      1 <1>        -0.0581 
     51 C51        26.2685  -10.6291  -49.8342 C.ar      1 <1>         0.1258 
     52 C52        25.8907  -11.3162  -48.6724 C.ar      1 <1>        -0.0353 
     53 C53        26.6400  -11.2153  -47.4929 C.ar      1 <1>        -0.0289 
     54 S54        25.2607  -10.6614  -51.3005 S.o2      1 <1>         0.1852 
     55 O55        26.1338  -11.2104  -52.3191 O.2       1 <1>        -0.1294 
     56 O56        24.9094   -9.2695  -51.5091 O.2       1 <1>        -0.1294 
     57 O57        24.1290  -11.5081  -50.9737 O.2       1 <1>        -0.1294 
     58 C58        28.5450  -10.7956  -45.1892 C.3       1 <1>         0.0525 
     59 C59        29.0124  -12.2655  -45.3861 C.3       1 <1>        -0.0039 
     60 C60        28.8327  -13.1110  -44.0996 C.3       1 <1>         0.1092 
     61 S61        29.2806  -14.8325  -44.3996 S.o2      1 <1>         0.1588 
     62 O62        29.0864  -15.4751  -43.1146 O.2       1 <1>        -0.1336 
     63 O63        28.3542  -15.2710  -45.4258 O.2       1 <1>        -0.1336 
     64 O64        30.6636  -14.7734  -44.8310 O.2       1 <1>        -0.1336 
     65 C65        30.4138   -8.5207  -46.1198 C.2       1 <1>        -0.0146 
     66 C66        30.6413   -8.3247  -44.6765 C.2       1 <1>        -0.0103 
     67 C67        31.8585   -8.2241  -44.1280 C.2       1 <1>        -0.0148 
     68 C68        32.0544   -7.7798  -42.7314 C.2       1 <1>        -0.0016 
     69 C69        33.1878   -7.9191  -42.0368 C.2       1 <1>         0.0010 
     70 C70        33.3585   -7.3089  -40.6608 C.3       1 <1>         0.0851 
     71 N71        34.7570   -7.2108  -40.2187 N.pl3     1 <1>        -0.2684 
     72 C72        32.6201   -8.0710  -39.5082 C.3       1 <1>        -0.0072 
     73 C73        31.3059   -7.3666  -39.0678 C.3       1 <1>        -0.0853 
     74 C74        32.3621   -9.5630  -39.8519 C.3       1 <1>        -0.0853 
     75 C75        33.6694   -8.0040  -38.4004 C.ar      1 <1>        -0.0225 
     76 C76        34.8737   -7.5338  -38.9061 C.ar      1 <1>         0.0774 
     77 C77        35.8249   -6.8224  -41.1590 C.3       1 <1>         0.0418 
     78 C78        36.9976   -5.9004  -40.7155 C.3       1 <1>        -0.0080 
     79 C79        37.6333   -5.1320  -41.9070 C.3       1 <1>         0.1087 
     80 S80        39.1634   -4.3120  -41.4103 S.o2      1 <1>         0.1588 
     81 O81        39.5936   -3.6159  -42.6070 O.2       1 <1>        -0.1336 
     82 O82        38.7638   -3.4391  -40.3242 O.2       1 <1>        -0.1336 
     83 O83        40.0401   -5.3964  -41.0113 O.2       1 <1>        -0.1336 
     84 C84        33.5086   -8.3513  -37.0579 C.ar      1 <1>        -0.0215 
     85 C85        34.6058   -8.2243  -36.1989 C.ar      1 <1>         0.1473 
     86 C86        35.8277   -7.7658  -36.7011 C.ar      1 <1>        -0.0162 
     87 C87        35.9822   -7.4476  -38.0563 C.ar      1 <1>        -0.0085 
     88 S88        34.4340   -8.5890  -34.4676 S.o2      1 <1>         0.1897 
     89 O89        34.0602   -7.3165  -33.8827 O.2       1 <1>        -0.1290 
     90 O90        33.3965   -9.6002  -34.4062 O.2       1 <1>        -0.1290 
     91 O91        35.7431   -9.0664  -34.0659 O.2       1 <1>        -0.1290 
     92 O92        13.1373    4.6489  -34.3692 O.3       1 <1>        -0.3892 
     93 O93        15.4703    3.8553  -35.5897 O.3       1 <1>        -0.3891 
     94 C94         9.3873    1.9510  -41.4190 C.3       1 <1>        -0.0590 
     95 C95        11.6147    4.3742  -38.5728 C.3       1 <1>        -0.0569 
     96 H1         11.2804    3.6242  -35.9589 H         1 <1>         0.0298 
     97 H2         12.6892    2.5710  -35.7685 H         1 <1>         0.0298 
     98 H3         12.6215    5.6200  -36.1088 H         1 <1>         0.0619 
     99 H4         15.0216    5.7185  -36.1883 H         1 <1>         0.0621 
    100 C100        6.7134   -1.6323  -40.1543 C.3       1 <1>        -0.0597 
    101 O101        7.2938    0.6998  -43.1727 O.3       1 <1>        -0.3890 
    102 O102        6.3349   -2.8790  -42.6707 O.3       1 <1>        -0.3890 
    103 C103        5.7525   -0.1332  -45.2808 C.3       1 <1>        -0.0597 
    104 H5         15.7339    4.2918  -38.1477 H         1 <1>         0.0319 
    105 H6         14.2810    5.2609  -38.4491 H         1 <1>         0.0319 
    106 H7         14.3515    2.3219  -37.6248 H         1 <1>         0.0500 
    107 H8         12.3236    1.0944  -37.6697 H         1 <1>         0.0312 
    108 H9         11.7977    2.2974  -40.4495 H         1 <1>         0.0332 
    109 H10        13.7499    0.9519  -41.0047 H         1 <1>         0.0462 
    110 H11        13.9687    0.5255  -39.3046 H         1 <1>         0.0462 
    111 H12         9.9285    2.0792  -36.9889 H         1 <1>         0.0268 
    112 H13        10.2368    0.4211  -37.4536 H         1 <1>         0.0268 
    113 H14         8.8806    2.5318  -39.0556 H         1 <1>         0.0271 
    114 H15         8.2805    0.9544  -38.5825 H         1 <1>         0.0271 
    115 H16        11.2216   -0.4425  -39.4367 H         1 <1>         0.0311 
    116 H17        12.1557   -1.1467  -41.4587 H         1 <1>         0.0268 
    117 H18        11.5994    0.2933  -42.3361 H         1 <1>         0.0268 
    118 H19        10.0128   -2.1959  -41.6674 H         1 <1>         0.0268 
    119 H20         9.6603   -0.9045  -42.8253 H         1 <1>         0.0268 
    120 H21         9.0810   -1.1067  -39.8432 H         1 <1>         0.0310 
    121 H22         7.0190    0.3981  -40.5544 H         1 <1>         0.0327 
    122 H23         5.7142   -0.2211  -42.3171 H         1 <1>         0.0622 
    123 H24         7.7686   -1.9131  -43.7410 H         1 <1>         0.0622 
    124 H25         4.7917   -1.8039  -44.3869 H         1 <1>         0.0326 
    125 H26         7.2651   -2.4061  -46.1199 H         1 <1>         0.0299 
    126 H27         5.5858   -1.5947  -47.6657 H         1 <1>         0.0232 
    127 H28         4.2726   -2.4603  -46.8068 H         1 <1>         0.0232 
    128 H29         5.4855   -3.3432  -47.7622 H         1 <1>         0.0232 
    129 H30         5.1893   -4.3130  -44.8888 H         1 <1>         0.0232 
    130 H31         6.9441   -4.2729  -44.5331 H         1 <1>         0.0232 
    131 H32         6.3874   -4.7876  -46.1214 H         1 <1>         0.0232 
    132 H33        16.5904    2.1755  -40.8872 H         1 <1>         0.0867 
    133 H34        16.7595    3.5303  -42.0490 H         1 <1>         0.0867 
    134 H35        18.3308    1.0851  -42.1049 H         1 <1>         0.1851 
    135 H36        17.8588    0.3145  -44.8624 H         1 <1>         0.0520 
    136 H37        17.3299   -0.9602  -43.7252 H         1 <1>         0.0520 
    137 H38        19.6284   -0.9450  -42.6654 H         1 <1>         0.0285 
    138 H39        20.1228    0.3392  -43.8085 H         1 <1>         0.0285 
    139 H40        19.6488   -1.2686  -45.7294 H         1 <1>         0.0267 
    140 H41        19.2847   -2.5473  -44.5334 H         1 <1>         0.0267 
    141 H42        21.6357   -2.2924  -43.5855 H         1 <1>         0.0285 
    142 H43        21.9599   -1.0235  -44.8040 H         1 <1>         0.0285 
    143 H44        21.4665   -2.7305  -46.6284 H         1 <1>         0.0520 
    144 H45        21.3419   -3.9879  -45.3653 H         1 <1>         0.0520 
    145 H46        23.8440   -2.6374  -45.0534 H         1 <1>         0.1850 
    146 H47        25.7642   -4.0683  -45.6714 H         1 <1>         0.0502 
    147 H48        25.6592   -3.3399  -47.3035 H         1 <1>         0.0502 
    148 H49        25.1387   -5.6764  -48.2342 H         1 <1>         0.0290 
    149 H50        25.3645   -6.3117  -46.5804 H         1 <1>         0.0290 
    150 H51        27.7981   -5.3122  -46.7262 H         1 <1>         0.0266 
    151 H52        27.4595   -5.0170  -48.4571 H         1 <1>         0.0266 
    152 H53        26.7597   -7.5321  -48.5812 H         1 <1>         0.0244 
    153 H54        27.4125   -7.6721  -46.9291 H         1 <1>         0.0244 
    154 H55        29.6547   -6.7017  -48.0272 H         1 <1>        -0.0020 
    155 H56        28.8917   -7.1199  -49.5703 H         1 <1>        -0.0020 
    156 H57        30.8379  -10.3230  -48.9889 H         1 <1>        -0.0055 
    157 H58        31.4545   -8.6443  -48.9391 H         1 <1>        -0.0055 
    158 H59        30.3547   -9.1482  -50.2464 H         1 <1>        -0.0055 
    159 H60        27.8017   -9.4062  -50.7609 H         1 <1>         0.0636 
    160 H61        24.9990  -11.9344  -48.6772 H         1 <1>         0.0659 
    161 H62        26.3162  -11.7472  -46.6062 H         1 <1>         0.0572 
    162 H63        27.5144  -10.7426  -44.8067 H         1 <1>         0.0595 
    163 H64        29.1951  -10.3715  -44.4186 H         1 <1>         0.0595 
    164 H65        30.0746  -12.2641  -45.6829 H         1 <1>         0.0307 
    165 H66        28.4493  -12.7506  -46.1966 H         1 <1>         0.0307 
    166 H67        27.7824  -13.0903  -43.7701 H         1 <1>         0.0538 
    167 H68        29.4681  -12.7197  -43.2906 H         1 <1>         0.0538 
    168 H69        31.1201   -7.9215  -46.6911 H         1 <1>         0.1033 
    169 H70        29.7567   -8.1817  -44.0558 H         1 <1>         0.0729 
    170 H71        32.7366   -8.4291  -44.7416 H         1 <1>         0.1078 
    171 H72        31.2146   -7.2718  -42.2567 H         1 <1>         0.0683 
    172 H73        34.0161   -8.4745  -42.4766 H         1 <1>         0.1290 
    173 H74        33.0035   -6.2650  -40.6992 H         1 <1>         0.0813 
    174 H75        31.5114   -6.3384  -38.7324 H         1 <1>         0.0117 
    175 H76        30.8283   -7.9094  -38.2391 H         1 <1>         0.0117 
    176 H77        30.5908   -7.3283  -39.9016 H         1 <1>         0.0117 
    177 H78        31.9890  -10.0985  -38.9656 H         1 <1>         0.0117 
    178 H79        33.2942  -10.0468  -40.1824 H         1 <1>         0.0117 
    179 H80        31.6101   -9.6554  -40.6500 H         1 <1>         0.0117 
    180 H81        35.3188   -6.2729  -41.9698 H         1 <1>         0.0543 
    181 H82        36.2455   -7.7420  -41.5973 H         1 <1>         0.0543 
    182 H83        37.8178   -6.5077  -40.3059 H         1 <1>         0.0303 
    183 H84        36.6516   -5.1775  -39.9595 H         1 <1>         0.0303 
    184 H85        36.9406   -4.3656  -42.2888 H         1 <1>         0.0538 
    185 H86        37.8821   -5.8256  -42.7258 H         1 <1>         0.0538 
    186 H87        32.5569   -8.7116  -36.6864 H         1 <1>         0.0807 
    187 H88        36.6717   -7.6536  -36.0277 H         1 <1>         0.0832 
    188 H89        36.9572   -7.1463  -38.3918 H         1 <1>         0.0604 
    189 H90        13.6497    5.3476  -33.9745 H         1 <1>         0.2099 
    190 H91        15.1609    2.9611  -35.5101 H         1 <1>         0.2099 
    191 H92         9.8244    2.9289  -41.1727 H         1 <1>         0.0235 
    192 H93         8.3109    2.1496  -41.5089 H         1 <1>         0.0235 
    193 H94         9.7720    1.6724  -42.4073 H         1 <1>         0.0235 
    194 H95        11.7405    4.3532  -39.6600 H         1 <1>         0.0237 
    195 H96        11.9502    5.3700  -38.2639 H         1 <1>         0.0237 
    196 H97        10.5402    4.3108  -38.3513 H         1 <1>         0.0237 
    197 H98         5.6223   -1.6412  -40.2857 H         1 <1>         0.0233 
    198 H99         6.8977   -1.4719  -39.0799 H         1 <1>         0.0233 
    199 H100        7.1234   -2.6195  -40.4093 H         1 <1>         0.0233 
    200 H101        8.1392    0.5613  -43.5791 H         1 <1>         0.2099 
    201 H102        5.4311   -2.8535  -42.3727 H         1 <1>         0.2099 
    202 H103        6.7382    0.1750  -45.6651 H         1 <1>         0.0233 
    203 H104        5.3975    0.6013  -44.5424 H         1 <1>         0.0233 
    204 H105        5.0208   -0.0544  -46.0973 H         1 <1>         0.0233 
@<TRIPOS>BOND
     1    3    2 1    
     2    2    1 1    
     3    3    4 1    
     4    4    5 1    
     5    5    6 1    
     6    1    6 1    
     7    6    7 1    
     8    7    8 1    
     9    8    9 1    
    10    9   10 1    
    11    5   10 1    
    12    7   11 1    
    13   11   12 1    
    14   12   13 1    
    15   13   14 1    
    16    8   14 1    
    17   14   15 1    
    18   15   16 1    
    19   16   17 1    
    20   13   17 1    
    21   17   18 1    
    22   18   19 1    
    23   19   20 1    
    24   20   21 1    
    25   21   22 1    
    26   22   23 1    
    27   22   24 1    
    28   10   25 2    
    29   25   26 1    
    30   26   27 1    
    31   27   28 1    
    32   28   29 2    
    33   28   30 am   
    34   30   31 1    
    35   31   32 1    
    36   32   33 1    
    37   33   34 1    
    38   34   35 1    
    39   35   36 1    
    40   36   37 am   
    41   37   38 2    
    42   37   39 1    
    43   39   40 1    
    44   40   41 1    
    45   41   42 1    
    46   42   43 1    
    47   43   44 1    
    48   44   45 1    
    49   44   46 1    
    50   46   47 ar   
    51   47   48 1    
    52   48   49 1    
    53   44   49 1    
    54   46   50 ar   
    55   50   51 ar   
    56   51   52 ar   
    57   52   53 ar   
    58   47   53 ar   
    59   51   54 1    
    60   54   55 2    
    61   54   56 2    
    62   54   57 2    
    63   48   58 1    
    64   58   59 1    
    65   59   60 1    
    66   60   61 1    
    67   61   62 2    
    68   61   63 2    
    69   61   64 2    
    70   49   65 2    
    71   65   66 1    
    72   66   67 2    
    73   67   68 1    
    74   68   69 2    
    75   69   70 1    
    76   70   71 1    
    77   70   72 1    
    78   72   73 1    
    79   72   74 1    
    80   72   75 1    
    81   75   76 ar   
    82   71   76 1    
    83   71   77 1    
    84   77   78 1    
    85   78   79 1    
    86   79   80 1    
    87   80   81 2    
    88   80   82 2    
    89   80   83 2    
    90   75   84 ar   
    91   84   85 ar   
    92   85   86 ar   
    93   86   87 ar   
    94   76   87 ar   
    95   85   88 1    
    96   88   89 2    
    97   88   90 2    
    98   88   91 2    
    99    2   92 1    
   100    3   93 1    
   101   13   94 1    
   102    6   95 1    
   103    1   96 1    
   104    1   97 1    
   105    2   98 1    
   106    3   99 1    
   107   18  100 1    
   108   19  101 1    
   109   20  102 1    
   110   21  103 1    
   111    4  104 1    
   112    4  105 1    
   113    5  106 1    
   114    7  107 1    
   115    8  108 1    
   116    9  109 1    
   117    9  110 1    
   118   11  111 1    
   119   11  112 1    
   120   12  113 1    
   121   12  114 1    
   122   14  115 1    
   123   15  116 1    
   124   15  117 1    
   125   16  118 1    
   126   16  119 1    
   127   17  120 1    
   128   18  121 1    
   129   19  122 1    
   130   20  123 1    
   131   21  124 1    
   132   22  125 1    
   133   23  126 1    
   134   23  127 1    
   135   23  128 1    
   136   24  129 1    
   137   24  130 1    
   138   24  131 1    
   139   27  132 1    
   140   27  133 1    
   141   30  134 1    
   142   31  135 1    
   143   31  136 1    
   144   32  137 1    
   145   32  138 1    
   146   33  139 1    
   147   33  140 1    
   148   34  141 1    
   149   34  142 1    
   150   35  143 1    
   151   35  144 1    
   152   36  145 1    
   153   39  146 1    
   154   39  147 1    
   155   40  148 1    
   156   40  149 1    
   157   41  150 1    
   158   41  151 1    
   159   42  152 1    
   160   42  153 1    
   161   43  154 1    
   162   43  155 1    
   163   45  156 1    
   164   45  157 1    
   165   45  158 1    
   166   50  159 1    
   167   52  160 1    
   168   53  161 1    
   169   58  162 1    
   170   58  163 1    
   171   59  164 1    
   172   59  165 1    
   173   60  166 1    
   174   60  167 1    
   175   65  168 1    
   176   66  169 1    
   177   67  170 1    
   178   68  171 1    
   179   69  172 1    
   180   70  173 1    
   181   73  174 1    
   182   73  175 1    
   183   73  176 1    
   184   74  177 1    
   185   74  178 1    
   186   74  179 1    
   187   77  180 1    
   188   77  181 1    
   189   78  182 1    
   190   78  183 1    
   191   79  184 1    
   192   79  185 1    
   193   84  186 1    
   194   86  187 1    
   195   87  188 1    
   196   92  189 1    
   197   93  190 1    
   198   94  191 1    
   199   94  192 1    
   200   94  193 1    
   201   95  194 1    
   202   95  195 1    
   203   95  196 1    
   204  100  197 1    
   205  100  198 1    
   206  100  199 1    
   207  101  200 1    
   208  102  201 1    
   209  103  202 1    
   210  103  203 1    
   211  103  204 1    
@<TRIPOS>SUBSTRUCTURE
     1 ****        1 TEMP              0 ****  ****    0 ROOT 
@<TRIPOS>NORMAL
@<TRIPOS>FF_PBC
FORCE_FIELD_SETUP_FEATURE Force Field Setup information
v1.0  0 0.000000 0.000000 0.000000 0.000000 0.000000 0.000000 NONE 0 0 0 0 1 0 0 0 0 0 0 0 0
