#	Name:			PISM00545
#	Creating user name:	malab
#	Creation time:		Thu Apr 04 22:09:05 2019

#	Modifying user name:	malab
#	Modification time:	Thu Apr 04 22:10:24 2019

@<TRIPOS>MOLECULE
PISM00545
   34    35     1     1     0
SMALL
USER_CHARGES


@<TRIPOS>ATOM
      1 C1         20.6719   12.2431   -8.5576 C.3       1 <1>         0.0000 
      2 C2         21.8166   11.2069   -8.6775 C.3       1 <1>         0.0000 
      3 N3         22.0485   10.9180   -7.2715 N.am      1 <1>         0.0000 
      4 C4         21.5753   11.8565   -6.4302 C.2       1 <1>         0.0000 
      5 O5         21.6325   11.8408   -5.2114 O.2       1 <1>         0.0000 
      6 C6         20.9594   12.9727   -7.2227 C.3       1 <1>         0.0000 
      7 C7         22.7627    9.7524   -6.7660 C.3       1 <1>         0.0000 
      8 C8         23.9015   10.1857   -5.8748 C.2       1 <1>         0.0000 
      9 N9         24.6608   11.1776   -6.2580 N.pl3     1 <1>         0.0000 
     10 N10        24.0583    9.5443   -4.7829 N.2       1 <1>         0.0000 
     11 O11        25.1479   10.1216   -4.1053 O.3       1 <1>         0.0000 
     12 C12        26.0165    9.2062   -3.6614 C.2       1 <1>         0.0000 
     13 O13        26.9127    9.5960   -2.9312 O.2       1 <1>         0.0000 
     14 C14        25.9622    7.7278   -3.9915 C.ar      1 <1>         0.0000 
     15 C15        26.2918    6.8093   -2.9901 C.ar      1 <1>         0.0000 
     16 C16        26.2584    5.4358   -3.2458 C.ar      1 <1>         0.0000 
     17 C17        25.8900    4.9656   -4.5088 C.ar      1 <1>         0.0000 
     18 C18        25.5449    5.8771   -5.5105 C.ar      1 <1>         0.0000 
     19 C19        25.6129    7.2515   -5.2619 C.ar      1 <1>         0.0000 
     20 Cl20       25.8686    3.2430   -4.8265 Cl        1 <1>         0.0000 
     21 Cl21       25.0307    5.3046   -7.0850 Cl        1 <1>         0.0000 
     22 H1         19.7151   11.7010   -8.4677 H         1 <1>         0.0000 
     23 H2         20.6109   12.9310   -9.4164 H         1 <1>         0.0000 
     24 H3         22.7176   11.6605   -9.1163 H         1 <1>         0.0000 
     25 H4         21.5271   10.3162   -9.2562 H         1 <1>         0.0000 
     26 H5         21.7138   13.7637   -7.3579 H         1 <1>         0.0000 
     27 H6         20.0530   13.3973   -6.7624 H         1 <1>         0.0000 
     28 H7         23.1843    9.1652   -7.5963 H         1 <1>         0.0000 
     29 H8         22.0569    9.1114   -6.2142 H         1 <1>         0.0000 
     30 H9         25.4390   11.4861   -5.6589 H         1 <1>         0.0000 
     31 H10        24.4951   11.6598   -7.1540 H         1 <1>         0.0000 
     32 H11        26.5752    7.1583   -2.0021 H         1 <1>         0.0000 
     33 H12        26.5181    4.7321   -2.4619 H         1 <1>         0.0000 
     34 H13        25.4042    7.9377   -6.0734 H         1 <1>         0.0000 
@<TRIPOS>BOND
     1    2    1 1    
     2    2    3 1    
     3    3    4 am   
     4    4    5 2    
     5    4    6 1    
     6    1    6 1    
     7    3    7 1    
     8    7    8 1    
     9    8    9 1    
    10    8   10 2    
    11   10   11 1    
    12   11   12 1    
    13   12   13 2    
    14   12   14 1    
    15   14   15 ar   
    16   15   16 ar   
    17   16   17 ar   
    18   17   18 ar   
    19   18   19 ar   
    20   14   19 ar   
    21   17   20 1    
    22   18   21 1    
    23    1   22 1    
    24    1   23 1    
    25    2   24 1    
    26    2   25 1    
    27    6   26 1    
    28    6   27 1    
    29    7   28 1    
    30    7   29 1    
    31    9   30 1    
    32    9   31 1    
    33   15   32 1    
    34   16   33 1    
    35   19   34 1    
@<TRIPOS>SUBSTRUCTURE
     1 ****        2 TEMP              0 ****  ****    0 ROOT 
@<TRIPOS>NORMAL
@<TRIPOS>FF_PBC
FORCE_FIELD_SETUP_FEATURE Force Field Setup information
v1.0  0 0.000000 0.000000 0.000000 0.000000 0.000000 0.000000 NONE 0 0 0 0 0 0 0 0 0 0 0 0 0
