#	Name:			PISM00708
#	Creating user name:	baoopengkun
#	Creation time:		Thu Jan 24 23:58:31 2019

#	Modifying user name:	baoopengkun
#	Modification time:	Fri Jan 25 00:01:01 2019

@<TRIPOS>MOLECULE
PISM00708
   61    65     1     1     0
SMALL
GAST_HUCK


@<TRIPOS>ATOM
      1 O1         -5.7973   -1.5896   11.6466 O.2       1 <1>        -0.3440 
      2 C2         -6.4322   -0.6960   12.1819 C.2       1 <1>         0.1764 
      3 C3         -6.1659   -0.3362   13.6112 C.3       1 <1>         0.0243 
      4 C4         -7.4611    0.2357   14.2360 C.3       1 <1>        -0.0611 
      5 C5         -8.1178    1.4033   13.4167 C.3       1 <1>        -0.0377 
      6 C6         -8.2118    1.0040   11.9475 C.2       1 <1>        -0.0401 
      7 C7         -7.4479    0.0366   11.4177 C.2       1 <1>         0.0477 
      8 C8         -9.5393    1.7144   14.0367 C.3       1 <1>        -0.0607 
      9 C9        -10.4552    2.5745   13.1200 C.3       1 <1>        -0.0273 
     10 C10       -10.5820    1.9412   11.7020 C.3       1 <1>         0.0383 
     11 C11        -9.1809    1.7644   11.0709 C.3       1 <1>        -0.0026 
     12 C12        -9.4451    2.3886   15.4383 C.3       1 <1>        -0.0583 
     13 C13       -10.8469    2.6241   16.0472 C.3       1 <1>        -0.0452 
     14 C14       -11.7537    3.5681   15.1990 C.3       1 <1>         0.0024 
     15 C15       -11.8288    3.0196   13.7385 C.3       1 <1>        -0.0293 
     16 C16       -12.9712    1.9785   13.8134 C.3       1 <1>        -0.0466 
     17 C17       -14.0284    2.7257   14.6567 C.3       1 <1>        -0.0205 
     18 C18       -13.2243    3.4723   15.7616 C.3       1 <1>         0.0937 
     19 C19        -7.1512    2.6313   13.4342 C.3       1 <1>        -0.0890 
     20 S20       -11.6180    0.4372   11.4620 S.3       1 <1>        -0.0444 
     21 C21       -10.8385   -0.9493   12.2755 C.2       1 <1>         0.1615 
     22 O22        -9.6428   -1.1709   12.2823 O.2       1 <1>        -0.3794 
     23 C23       -11.7174   -1.9506   12.9723 C.3       1 <1>         0.0201 
     24 C24       -11.1843    5.0227   15.2041 C.3       1 <1>        -0.0565 
     25 C25       -13.9148    4.8062   16.1779 C.3       1 <1>         0.0532 
     26 C26       -14.9686    4.2483   17.0737 C.2       1 <1>         0.1334 
     27 O27       -16.0190    4.8153   17.3316 O.2       1 <1>        -0.3890 
     28 C28       -14.5891    2.9093   17.6136 C.3       1 <1>         0.1216 
     29 O29       -13.2995    2.7189   16.9974 O.3       1 <1>        -0.3512 
     30 H1         -5.3331    0.3799   13.6524 H         1 <1>         0.0483 
     31 H2         -5.8610   -1.2397   14.1632 H         1 <1>         0.0483 
     32 H3         -7.1978    0.5479   15.2567 H         1 <1>         0.0172 
     33 H4         -8.1716   -0.6021   14.3183 H         1 <1>         0.0172 
     34 H5         -7.5394   -0.2533   10.3723 H         1 <1>         0.1318 
     35 H6        -10.0800    0.7651   14.1674 H         1 <1>         0.0187 
     36 H7         -9.9090    3.5178   12.9724 H         1 <1>         0.0311 
     37 H8        -11.1243    2.6769   11.0806 H         1 <1>         0.0468 
     38 H9         -8.7336    2.7579   10.9023 H         1 <1>         0.0463 
     39 H10        -9.3090    1.2963   10.0812 H         1 <1>         0.0463 
     40 H11        -8.9067    3.3438   15.3904 H         1 <1>         0.0259 
     41 H12        -8.9041    1.7447   16.1476 H         1 <1>         0.0259 
     42 H13       -10.7355    3.0501   17.0577 H         1 <1>         0.0271 
     43 H14       -11.3076    1.6311   16.1620 H         1 <1>         0.0271 
     44 H15       -12.2213    3.8262   13.0917 H         1 <1>         0.0310 
     45 H16       -12.6447    1.0496   14.3048 H         1 <1>         0.0269 
     46 H17       -13.4208    1.7347   12.8377 H         1 <1>         0.0269 
     47 H18       -14.7918    2.0283   15.0336 H         1 <1>         0.0295 
     48 H19       -14.5320    3.4580   14.0032 H         1 <1>         0.0295 
     49 H20        -7.6145    3.5358   13.0197 H         1 <1>         0.0112 
     50 H21        -6.2526    2.4349   12.8309 H         1 <1>         0.0112 
     51 H22        -6.8109    2.8627   14.4537 H         1 <1>         0.0112 
     52 H23       -11.3403   -2.1317   13.9897 H         1 <1>         0.0467 
     53 H24       -11.6912   -2.8946   12.4080 H         1 <1>         0.0467 
     54 H25       -12.7563   -1.5930   13.0306 H         1 <1>         0.0467 
     55 H26       -11.8740    5.7160   14.7011 H         1 <1>         0.0236 
     56 H27       -11.0183    5.3736   16.2324 H         1 <1>         0.0236 
     57 H28       -10.2251    5.1056   14.6777 H         1 <1>         0.0236 
     58 H29       -14.3235    5.4008   15.3476 H         1 <1>         0.0523 
     59 H30       -13.2910    5.4375   16.8253 H         1 <1>         0.0523 
     60 H31       -15.3349    2.1577   17.3161 H         1 <1>         0.0795 
     61 H32       -14.4933    2.9174   18.7096 H         1 <1>         0.0795 
@<TRIPOS>BOND
     1    2    1 2    
     2    2    3 1    
     3    3    4 1    
     4    4    5 1    
     5    5    6 1    
     6    6    7 2    
     7    2    7 1    
     8    5    8 1    
     9    8    9 1    
    10    9   10 1    
    11   10   11 1    
    12    6   11 1    
    13    8   12 1    
    14   12   13 1    
    15   13   14 1    
    16   14   15 1    
    17    9   15 1    
    18   15   16 1    
    19   16   17 1    
    20   17   18 1    
    21   14   18 1    
    22    5   19 1    
    23   10   20 1    
    24   20   21 1    
    25   21   22 2    
    26   21   23 1    
    27   14   24 1    
    28   18   25 1    
    29   25   26 1    
    30   26   27 2    
    31   26   28 1    
    32   28   29 1    
    33   18   29 1    
    34    3   30 1    
    35    3   31 1    
    36    4   32 1    
    37    4   33 1    
    38    7   34 1    
    39    8   35 1    
    40    9   36 1    
    41   10   37 1    
    42   11   38 1    
    43   11   39 1    
    44   12   40 1    
    45   12   41 1    
    46   13   42 1    
    47   13   43 1    
    48   15   44 1    
    49   16   45 1    
    50   16   46 1    
    51   17   47 1    
    52   17   48 1    
    53   19   49 1    
    54   19   50 1    
    55   19   51 1    
    56   23   52 1    
    57   23   53 1    
    58   23   54 1    
    59   24   55 1    
    60   24   56 1    
    61   24   57 1    
    62   25   58 1    
    63   25   59 1    
    64   28   60 1    
    65   28   61 1    
@<TRIPOS>SUBSTRUCTURE
     1 ****        2 TEMP              0 ****  ****    0 ROOT 
@<TRIPOS>NORMAL
@<TRIPOS>FF_PBC
FORCE_FIELD_SETUP_FEATURE Force Field Setup information
v1.0  0 0.000000 0.000000 0.000000 0.000000 0.000000 0.000000 NONE 0 0 0 0 1 0 0 0 0 0 0 0 0
