#	Name:			PISM00391
#	Creating user name:	baoopengkun
#	Creation time:		Sun Mar 31 17:19:53 2019

#	Modifying user name:	baoopengkun
#	Modification time:	Sun Mar 31 17:22:51 2019

@<TRIPOS>MOLECULE
PISM00391
   49    50     1     1     0
SMALL
GAST_HUCK
INVALID_CHARGES

@<TRIPOS>ATOM
      1 C1         -2.8265    1.3877   -4.9268 C.3       1 <1>        -0.0542 
      2 C2         -1.9102    2.3246   -4.0768 C.3       1 <1>         0.0202 
      3 C3         -0.4381    1.8352   -4.2708 C.3       1 <1>        -0.0542 
      4 C4         -2.0231    3.7742   -4.6270 C.3       1 <1>         0.0297 
      5 C5         -3.3861    4.3175   -4.3014 C.2       1 <1>         0.1060 
      6 C6         -3.7436    4.4129   -2.8451 C.3       1 <1>         0.0271 
      7 C7         -3.6152    3.0271   -2.1541 C.3       1 <1>         0.0117 
      8 C8         -2.2596    2.3398   -2.5439 C.3       1 <1>         0.1338 
      9 O9         -4.1629    4.6625   -5.1765 O.2       1 <1>        -0.3916 
     10 C10        -4.9113    2.1842   -2.3301 C.3       1 <1>        -0.0568 
     11 C11        -2.1853    0.9696   -2.0288 C.1       1 <1>        -0.0746 
     12 C12        -2.1050   -0.1603   -1.6249 C.1       1 <1>        -0.0832 
     13 C13        -1.9923   -1.5180   -1.1537 C.2       1 <1>        -0.0119 
     14 C14        -0.6947   -2.2348   -1.4277 C.3       1 <1>        -0.0336 
     15 C15        -3.0163   -2.0966   -0.5073 C.2       1 <1>        -0.0671 
     16 C16        -4.3732   -1.4600   -0.3256 C.3       1 <1>         0.0156 
     17 O17        -5.1874   -2.3762    0.4381 O.3       1 <1>         0.0000 
     18 C18        -5.3915   -3.5517   -0.1757 C.2       1 <1>         0.0000 
     19 O19        -5.3603   -3.6690   -1.3905 O.2       1 <1>         0.0000 
     20 O20        -1.2050    3.0922   -1.9061 O.3       1 <1>        -0.3764 
     21 C21        -5.5953   -4.7544    0.6461 C.2       1 <1>         0.0000 
     22 C22        -5.6796   -6.0100    0.1928 C.2       1 <1>         0.0000 
     23 S23        -5.7028   -4.6302    2.4140 S.3       1 <1>         0.0000 
     24 C24        -5.7863   -6.4128    2.4848 C.2       1 <1>         0.0000 
     25 C25        -5.7783   -6.9891    1.2804 C.2       1 <1>         0.0000 
     26 H1         -2.4066    1.2721   -5.9377 H         1 <1>         0.0000 
     27 H2         -3.8317    1.7909   -5.0766 H         1 <1>         0.0000 
     28 H3         -2.9023    0.3839   -4.4836 H         1 <1>         0.0000 
     29 H4         -0.3151    0.8053   -3.9029 H         1 <1>         0.0000 
     30 H5          0.2818    2.4758   -3.7401 H         1 <1>         0.0000 
     31 H6         -0.1571    1.8475   -5.3351 H         1 <1>         0.0000 
     32 H7         -1.8567    3.7884   -5.7160 H         1 <1>         0.0000 
     33 H8         -1.2705    4.4309   -4.1635 H         1 <1>         0.0000 
     34 H9         -4.7534    4.8333   -2.7126 H         1 <1>         0.0000 
     35 H10        -3.0282    5.1156   -2.3878 H         1 <1>         0.0000 
     36 H11        -3.5855    3.2086   -1.0641 H         1 <1>         0.0000 
     37 H12        -5.1978    2.0193   -3.3712 H         1 <1>         0.0000 
     38 H13        -5.7582    2.7050   -1.8549 H         1 <1>         0.0000 
     39 H14        -4.8117    1.2071   -1.8381 H         1 <1>         0.0000 
     40 H15        -0.6963   -3.2830   -1.0928 H         1 <1>         0.0000 
     41 H16         0.1244   -1.7082   -0.9154 H         1 <1>         0.0000 
     42 H17        -0.4948   -2.2203   -2.5097 H         1 <1>         0.0000 
     43 H18        -2.8572   -3.0980   -0.1059 H         1 <1>         0.0000 
     44 H19        -4.8260   -1.2456   -1.3031 H         1 <1>         0.0000 
     45 H20        -4.2670   -0.5139    0.2316 H         1 <1>         0.0000 
     46 H21        -1.2375    3.0971   -0.9552 H         1 <1>         0.0000 
     47 H22        -5.6496   -6.2959   -0.8566 H         1 <1>         0.0000 
     48 H23        -5.8342   -6.9627    3.4216 H         1 <1>         0.0000 
     49 H24        -5.8240   -8.0662    1.1102 H         1 <1>         0.0000 
@<TRIPOS>BOND
     1    2    1 1    
     2    2    3 1    
     3    2    4 1    
     4    4    5 1    
     5    5    6 1    
     6    6    7 1    
     7    7    8 1    
     8    2    8 1    
     9    5    9 2    
    10    7   10 1    
    11    8   11 1    
    12   11   12 3    
    13   12   13 1    
    14   13   14 1    
    15   13   15 2    
    16   15   16 1    
    17   16   17 1    
    18   17   18 1    
    19   18   19 2    
    20    8   20 1    
    21   18   21 1    
    22   21   22 2    
    23   21   23 1    
    24   23   24 1    
    25   24   25 2    
    26   22   25 1    
    27    1   26 1    
    28    1   27 1    
    29    1   28 1    
    30    3   29 1    
    31    3   30 1    
    32    3   31 1    
    33    4   32 1    
    34    4   33 1    
    35    6   34 1    
    36    6   35 1    
    37    7   36 1    
    38   10   37 1    
    39   10   38 1    
    40   10   39 1    
    41   14   40 1    
    42   14   41 1    
    43   14   42 1    
    44   15   43 1    
    45   16   44 1    
    46   16   45 1    
    47   20   46 1    
    48   22   47 1    
    49   24   48 1    
    50   25   49 1    
@<TRIPOS>SUBSTRUCTURE
     1 ****        2 TEMP              0 ****  ****    0 ROOT 
@<TRIPOS>NORMAL
@<TRIPOS>FF_PBC
FORCE_FIELD_SETUP_FEATURE Force Field Setup information
v1.0  0 0.000000 0.000000 0.000000 0.000000 0.000000 0.000000 NONE 0 0 0 0 1 0 0 0 0 0 0 0 0
