#	Name:			PISM01173
#	Creating user name:	baoopengkun
#	Creation time:		Tue Dec 18 16:55:30 2018

#	Modifying user name:	baoopengkun
#	Modification time:	Tue Dec 18 16:56:08 2018

@<TRIPOS>MOLECULE
PISM01173
   16    16     1     1     0
SMALL
GAST_HUCK


@<TRIPOS>ATOM
      1 O1          7.3489   33.6424   -3.6464 O.2       1 <1>        -0.3614 
      2 C2          6.7918   32.7866   -2.9808 C.2       1 <1>         0.2382 
      3 C3          5.3950   32.3731   -3.1635 C.2       1 <1>         0.0355 
      4 C4          5.1570   31.4215   -2.2563 C.2       1 <1>         0.0355 
      5 C5          6.3996   31.2275   -1.4955 C.2       1 <1>         0.2382 
      6 O6          6.5049   30.4188   -0.5898 O.2       1 <1>        -0.3614 
      7 N7          7.3286   32.0731   -1.9786 N.am      1 <1>        -0.1851 
      8 C8          8.7102   32.2218   -1.5268 C.3       1 <1>         0.0526 
      9 C9          9.1201   31.3562   -0.3081 C.3       1 <1>        -0.0410 
     10 H1          4.7021   32.7752   -3.9009 H         1 <1>         0.0802 
     11 H2          4.2249   30.8814   -2.0971 H         1 <1>         0.0802 
     12 H3          8.8734   33.2812   -1.2680 H         1 <1>         0.0564 
     13 H4          9.3763   31.9755   -2.3701 H         1 <1>         0.0564 
     14 H5          9.0294   30.2857   -0.5484 H         1 <1>         0.0252 
     15 H6          8.4827   31.5899    0.5587 H         1 <1>         0.0252 
     16 H7         10.1674   31.5606   -0.0340 H         1 <1>         0.0252 
@<TRIPOS>BOND
     1    2    1 2    
     2    2    3 1    
     3    3    4 2    
     4    4    5 1    
     5    5    6 2    
     6    5    7 am   
     7    2    7 am   
     8    7    8 1    
     9    8    9 1    
    10    3   10 1    
    11    4   11 1    
    12    8   12 1    
    13    8   13 1    
    14    9   14 1    
    15    9   15 1    
    16    9   16 1    
@<TRIPOS>SUBSTRUCTURE
     1 ****        2 TEMP              0 ****  ****    0 ROOT 
@<TRIPOS>NORMAL
@<TRIPOS>FF_PBC
FORCE_FIELD_SETUP_FEATURE Force Field Setup information
v1.0  0 0.000000 0.000000 0.000000 0.000000 0.000000 0.000000 NONE 0 0 0 0 1 0 0 0 0 0 0 0 0
