#	Name:			PISM01006
#	Creating user name:	malab
#	Creation time:		Thu Jul 04 18:08:07 2019

#	Modifying user name:	malab
#	Modification time:	Thu Jul 04 18:09:15 2019

@<TRIPOS>MOLECULE
PISM01006
   55    57     1     2     0
SMALL
GAST_HUCK


@<TRIPOS>ATOM
      1 C1         17.2052    8.7041   24.7981 C.3       1 <1>        -0.0652 
      2 C2         16.8524   10.0899   25.3982 C.3       1 <1>        -0.0535 
      3 C3         16.4776   11.1062   24.2853 C.3       1 <1>        -0.0253 
      4 C4         16.1243   12.4939   24.8758 C.3       1 <1>         0.0704 
      5 O5         15.7866   13.3761   23.7925 O.3       1 <1>        -0.3180 
      6 C6         15.4497   14.6641   24.2040 C.ar      1 <1>         0.0912 
      7 C7         16.4326   15.6546   24.2711 C.ar      1 <1>        -0.0313 
      8 C8         16.1009   16.9389   24.7115 C.ar      1 <1>        -0.0440 
      9 C9         14.7861   17.2341   25.0844 C.ar      1 <1>         0.0971 
     10 C10        13.7989   16.2485   24.9921 C.ar      1 <1>        -0.0440 
     11 C11        14.1300   14.9642   24.5507 C.ar      1 <1>        -0.0313 
     12 S12        14.3831   18.8348   25.7346 S.o2      1 <1>         0.0658 
     13 O13        12.9728   19.0943   25.5203 O.2       1 <1>        -0.1515 
     14 O14        15.3602   19.7993   25.2687 O.2       1 <1>        -0.1515 
     15 N15        14.6569   18.4964   27.3667 N.am      1 <1>        -0.2314 
     16 C16        13.5862   17.9666   28.2007 C.3       1 <1>         0.0499 
     17 C17        14.0189   16.5648   28.7000 C.3       1 <1>         0.0510 
     18 N18        15.3791   16.6529   29.2496 N.am      1 <1>        -0.2699 
     19 C19        16.4377   17.2152   28.4018 C.3       1 <1>         0.0510 
     20 C20        15.9967   18.6198   27.9251 C.3       1 <1>         0.0499 
     21 C21        15.7044   16.2034   30.4978 C.2       1 <1>         0.1842 
     22 O22        16.8502   16.2834   30.9098 O.2       1 <1>        -0.3965 
     23 C23        14.0273   16.7141   32.2789 C.3       1 <1>         0.1408 
     24 C24        13.0002   16.1388   33.2274 C.2       1 <1>        -0.0225 
     25 C25        11.7704   16.5417   32.9105 C.2       1 <1>         0.0124 
     26 C26        11.9989   17.4025   31.7561 C.2       1 <1>         0.2366 
     27 O27        13.2659   17.5578   31.3956 O.3       1 <1>        -0.2588 
     28 O28        11.0917   17.9482   31.1531 O.2       1 <1>        -0.3743 
     29 H1         17.4672    7.9982   25.6022 H         1 <1>         0.0230 
     30 C30        14.7412   15.5904   31.4884 C.3       1 <1>         0.0816 
     31 H2         18.0635    8.7890   24.1134 H         1 <1>         0.0230 
     32 H3         16.3471    8.2969   24.2408 H         1 <1>         0.0230 
     33 H4         17.7185   10.4675   25.9669 H         1 <1>         0.0263 
     34 H5         16.0049    9.9757   26.0947 H         1 <1>         0.0263 
     35 H6         15.6105   10.7328   23.7162 H         1 <1>         0.0291 
     36 H7         17.3228   11.2235   23.5873 H         1 <1>         0.0291 
     37 H8         16.9889   12.8938   25.4314 H         1 <1>         0.0614 
     38 H9         15.2696   12.3981   25.5659 H         1 <1>         0.0614 
     39 H10        17.4515   15.4201   23.9812 H         1 <1>         0.0542 
     40 H11        16.8652   17.7067   24.7668 H         1 <1>         0.0608 
     41 H12        12.7752   16.4800   25.2662 H         1 <1>         0.0608 
     42 H13        13.3669   14.1965   24.4762 H         1 <1>         0.0542 
     43 H14        12.6294   17.8964   27.6603 H         1 <1>         0.0498 
     44 H15        13.4426   18.6413   29.0589 H         1 <1>         0.0498 
     45 H16        14.0513   15.8826   27.8359 H         1 <1>         0.0538 
     46 H17        13.2352   16.1951   29.3720 H         1 <1>         0.0538 
     47 H18        16.5614   16.5609   27.5246 H         1 <1>         0.0538 
     48 H19        17.4227   17.3070   28.8877 H         1 <1>         0.0538 
     49 H20        16.7203   19.0181   27.1970 H         1 <1>         0.0498 
     50 H21        15.9636   19.3035   28.7881 H         1 <1>         0.0498 
     51 H22        14.7594   17.3345   32.8234 H         1 <1>         0.0904 
     52 H23        13.2326   15.4760   34.0610 H         1 <1>         0.0885 
     53 H24        10.8219   16.2995   33.3879 H         1 <1>         0.0485 
     54 H25        15.3123   14.9841   32.2105 H         1 <1>         0.0564 
     55 H26        14.0305   14.9031   31.0106 H         1 <1>         0.0564 
@<TRIPOS>BOND
     1    2    1 1    
     2    3    2 1    
     3    4    3 1    
     4    5    4 1    
     5    6    5 1    
     6    7    6 ar   
     7    8    7 ar   
     8    9    8 ar   
     9    9   10 ar   
    10   10   11 ar   
    11   11    6 ar   
    12   12    9 1    
    13   12   13 2    
    14   12   14 2    
    15   15   12 1    
    16   16   15 1    
    17   17   16 1    
    18   18   17 1    
    19   18   19 1    
    20   19   20 1    
    21   20   15 1    
    22   21   18 am   
    23   21   22 2    
    24   30   21 1    
    25   23   24 1    
    26   24   25 2    
    27   26   25 1    
    28   27   26 1    
    29   23   27 1    
    30   26   28 2    
    31    1   29 1    
    32   23   30 1    
    33    1   31 1    
    34    1   32 1    
    35    2   33 1    
    36    2   34 1    
    37    3   35 1    
    38    3   36 1    
    39    4   37 1    
    40    4   38 1    
    41    7   39 1    
    42    8   40 1    
    43   10   41 1    
    44   11   42 1    
    45   16   43 1    
    46   16   44 1    
    47   17   45 1    
    48   17   46 1    
    49   19   47 1    
    50   19   48 1    
    51   20   49 1    
    52   20   50 1    
    53   23   51 1    
    54   24   52 1    
    55   25   53 1    
    56   30   54 1    
    57   30   55 1    
@<TRIPOS>SUBSTRUCTURE
     1 ****       23 TEMP              0 ****  ****    0 ROOT 
@<TRIPOS>NORMAL
@<TRIPOS>FF_PBC
FORCE_FIELD_SETUP_FEATURE Force Field Setup information
v1.0  0 0.000000 0.000000 0.000000 0.000000 0.000000 0.000000 NONE 0 0 0 0 1 0 0 0 0 0 0 0 0
@<TRIPOS>RENDERING_ATTRS
ANTIALIASED_LINES 
1,2,3,4,5,6,7,8,9,10,11,12,13,14,15,16,17,18,19,20,21,22,23,24,25,26,27,28,29,30,31,32,33,34,35,36,37,38,39,40,41,42,43,44,45,46,47,48,49,50,51,52,53
