#	Name:			PISM00115
#	Creating user name:	baoopengkun
#	Creation time:		Mon Dec 17 14:05:23 2018

#	Modifying user name:	baoopengkun
#	Modification time:	Mon Dec 17 14:11:08 2018

@<TRIPOS>MOLECULE
PISM00115
   28    29     1     1     0
SMALL
GAST_HUCK


@<TRIPOS>ATOM
      1 C1          6.2114    6.7475    9.8211 C.ar      1 <1>         0.1336 
      2 C2          6.3656    8.1301    9.9721 C.ar      1 <1>        -0.0176 
      3 C3          5.5222    8.8112   10.8540 C.ar      1 <1>        -0.0586 
      4 C4          4.5466    8.0996   11.5572 C.ar      1 <1>        -0.0524 
      5 C5          4.4334    6.7200   11.3630 C.ar      1 <1>        -0.0099 
      6 N6          5.2597    6.0826   10.5080 N.ar      1 <1>        -0.2899 
      7 N7          7.0355    5.9878    8.9517 N.am      1 <1>        -0.1707 
      8 S8          8.2458    6.6370    8.0605 S.o2      1 <1>         0.0867 
      9 O9          7.6576    7.5046    7.0596 O.2       1 <1>        -0.1456 
     10 O10         9.2458    7.1657    8.9669 O.2       1 <1>        -0.1456 
     11 C11         8.9125    5.1999    7.2506 C.ar      1 <1>         0.1013 
     12 C12         9.9423    4.4692    7.8491 C.ar      1 <1>        -0.0465 
     13 C13        10.4482    3.3255    7.2243 C.ar      1 <1>        -0.0429 
     14 C14         9.9261    2.8948    5.9984 C.ar      1 <1>         0.0353 
     15 C15         8.8860    3.6245    5.4095 C.ar      1 <1>        -0.0429 
     16 C16         8.3790    4.7683    6.0335 C.ar      1 <1>        -0.0465 
     17 N17        10.4200    1.7875    5.3907 N.pl3     1 <1>        -0.3369 
     18 H1          7.1212    8.6778    9.4216 H         1 <1>         0.0577 
     19 H2          5.6239    9.8834   10.9916 H         1 <1>         0.0685 
     20 H3          3.8835    8.6123   12.2470 H         1 <1>         0.0562 
     21 H4          3.6800    6.1519   11.8986 H         1 <1>         0.0768 
     22 H5          6.8521    5.0078    8.8895 H         1 <1>         0.2227 
     23 H6         10.3496    4.7909    8.8019 H         1 <1>         0.0602 
     24 H7         11.2519    2.7734    7.7010 H         1 <1>         0.0515 
     25 H8          8.4637    3.3072    4.4614 H         1 <1>         0.0515 
     26 H9          7.5685    5.3231    5.5725 H         1 <1>         0.0602 
     27 H10        11.1863    1.2489    5.8219 H         1 <1>         0.1719 
     28 H11        10.0372    1.4683    4.4882 H         1 <1>         0.1719 
@<TRIPOS>BOND
     1    7    1 1    
     2    1    2 ar   
     3    2    3 ar   
     4    3    4 ar   
     5    4    5 ar   
     6    5    6 ar   
     7    1    6 ar   
     8    7    8 1    
     9    8    9 2    
    10    8   10 2    
    11    8   11 1    
    12   11   12 ar   
    13   12   13 ar   
    14   13   14 ar   
    15   15   14 ar   
    16   16   15 ar   
    17   11   16 ar   
    18   14   17 1    
    19    2   18 1    
    20    3   19 1    
    21    4   20 1    
    22    5   21 1    
    23    7   22 1    
    24   12   23 1    
    25   13   24 1    
    26   15   25 1    
    27   16   26 1    
    28   17   27 1    
    29   17   28 1    
@<TRIPOS>SUBSTRUCTURE
     1 ****        7 TEMP              0 ****  ****    0 ROOT 
@<TRIPOS>NORMAL
@<TRIPOS>FF_PBC
FORCE_FIELD_SETUP_FEATURE Force Field Setup information
v1.0  0 0.000000 0.000000 0.000000 0.000000 0.000000 0.000000 NONE 0 0 0 0 1 0 0 0 0 0 0 0 0
