#	Name:			PISM00646
#	Creating user name:	baoopengkun
#	Creation time:		Sat Jan 12 19:29:01 2019

#	Modifying user name:	baoopengkun
#	Modification time:	Sat Jan 12 19:31:38 2019

@<TRIPOS>MOLECULE
PISM00646
   21    21     1     1     0
SMALL
GAST_HUCK


@<TRIPOS>ATOM
      1 Cl1        -8.6428   -3.5462    0.4532 Cl        1 <1>        -0.0722 
      2 C2         -6.9976   -2.9508    0.3612 C.ar      1 <1>         0.0547 
      3 C3         -5.9298   -3.8400    0.2186 C.ar      1 <1>         0.0116 
      4 N4         -4.6670   -3.3739    0.1369 N.ar      1 <1>        -0.2802 
      5 C5         -4.3814   -2.0541    0.1602 C.ar      1 <1>         0.1352 
      6 C6         -5.4142   -1.1284    0.3591 C.ar      1 <1>        -0.0110 
      7 C7         -6.7345   -1.5813    0.4296 C.ar      1 <1>        -0.0388 
      8 N8         -3.0756   -1.7257    0.0032 N.pl3     1 <1>        -0.2217 
      9 C9         -2.6562   -0.6008   -0.5176 C.2       1 <1>         0.2249 
     10 O10        -3.3920    0.2803   -0.9293 O.2       1 <1>        -0.3744 
     11 C11        -1.1717   -0.3533   -0.6328 C.3       1 <1>         0.1434 
     12 C12        -0.4775   -1.5403   -1.2536 C.2       1 <1>         0.2516 
     13 O13        -0.9408   -2.6577   -1.1029 O.2       1 <1>        -0.3670 
     14 O14         0.6605   -1.3844   -1.9401 O.3       1 <1>        -0.2908 
     15 H1         -6.1120   -4.9078    0.1714 H         1 <1>         0.0792 
     16 H2         -5.2191   -0.0704    0.4749 H         1 <1>         0.0624 
     17 H3         -7.5535   -0.8756    0.5388 H         1 <1>         0.0708 
     18 H4         -2.3795   -2.4437    0.2627 H         1 <1>         0.2155 
     19 H5         -0.7617   -0.1985    0.3754 H         1 <1>         0.0764 
     20 H6         -0.9996    0.5559   -1.2265 H         1 <1>         0.0764 
     21 H7          0.9926   -0.4966   -1.9912 H         1 <1>         0.2541 
@<TRIPOS>BOND
     1    2    1 1    
     2    2    3 ar   
     3    3    4 ar   
     4    4    5 ar   
     5    5    6 ar   
     6    6    7 ar   
     7    2    7 ar   
     8    5    8 1    
     9    8    9 1    
    10    9   10 2    
    11    9   11 1    
    12   11   12 1    
    13   12   13 2    
    14   12   14 1    
    15    3   15 1    
    16    6   16 1    
    17    7   17 1    
    18    8   18 1    
    19   11   19 1    
    20   11   20 1    
    21   14   21 1    
@<TRIPOS>SUBSTRUCTURE
     1 ****        2 TEMP              0 ****  ****    0 ROOT 
@<TRIPOS>NORMAL
@<TRIPOS>FF_PBC
FORCE_FIELD_SETUP_FEATURE Force Field Setup information
v1.0  0 0.000000 0.000000 0.000000 0.000000 0.000000 0.000000 NONE 0 0 0 0 1 0 0 0 0 0 0 0 0
