#	Name:			PISM00471
#	Creating user name:	baoopengkun
#	Creation time:		Sun Dec 16 01:39:37 2018

#	Modifying user name:	baoopengkun
#	Modification time:	Sun Dec 16 01:41:21 2018

@<TRIPOS>MOLECULE
PISM00471
   45    48     1     1     0
SMALL
GAST_HUCK


@<TRIPOS>ATOM
      1 C1        -13.5872   24.8929   42.6647 C.3       1 <1>         0.0579 
      2 O2        -12.4363   25.5003   42.0572 O.3       1 <1>        -0.3257 
      3 C3        -11.5689   24.5826   41.4661 C.ar      1 <1>         0.0837 
      4 C4        -11.7697   24.1783   40.1450 C.ar      1 <1>        -0.0396 
      5 C5        -10.9053   23.2502   39.5569 C.ar      1 <1>        -0.0681 
      6 C6         -9.8283   22.7206   40.2797 C.ar      1 <1>        -0.0459 
      7 C7         -9.6322   23.1374   41.6031 C.ar      1 <1>        -0.0681 
      8 C8        -10.4960   24.0646   42.1936 C.ar      1 <1>        -0.0396 
      9 C9         -8.8727   21.6979   39.6349 C.3       1 <1>         0.0168 
     10 C10        -9.6279   20.4131   39.2063 C.3       1 <1>         0.0346 
     11 C11        -8.6453   19.4274   38.6364 C.2       1 <1>         0.1344 
     12 O12        -8.8336   18.2300   38.7755 O.2       1 <1>        -0.3836 
     13 C13        -7.4299   19.9276   37.8893 C.ar      1 <1>         0.0723 
     14 C14        -7.1792   21.2987   37.7892 C.ar      1 <1>         0.0534 
     15 C15        -8.1276   22.3180   38.4231 C.3       1 <1>         0.0163 
     16 N16        -6.0860   21.7309   37.1289 N.ar      1 <1>        -0.2444 
     17 C17        -5.2220   20.8625   36.5650 C.ar      1 <1>         0.2083 
     18 N18        -5.4528   19.5354   36.6358 N.ar      1 <1>        -0.2523 
     19 C19        -6.5281   19.0479   37.2865 C.ar      1 <1>         0.0265 
     20 N20        -4.1386   21.3553   35.9242 N.pl3     1 <1>        -0.2403 
     21 C21        -3.1125   20.5649   35.5228 C.ar      1 <1>         0.0667 
     22 C22        -2.6438   19.5176   36.3260 C.ar      1 <1>        -0.0378 
     23 C23        -1.6121   18.6878   35.8768 C.ar      1 <1>        -0.0712 
     24 C24        -1.0128   18.9242   34.6367 C.ar      1 <1>        -0.0732 
     25 C25        -1.4508   19.9897   33.8458 C.ar      1 <1>        -0.0712 
     26 C26        -2.4982   20.8032   34.2879 C.ar      1 <1>        -0.0378 
     27 H1        -14.1859   24.3501   41.9165 H         1 <1>         0.0575 
     28 H2        -14.2070   25.6889   43.1030 H         1 <1>         0.0575 
     29 H3        -13.2857   24.1984   43.4645 H         1 <1>         0.0575 
     30 H4        -12.5995   24.5893   39.5796 H         1 <1>         0.0525 
     31 H5        -11.0859   22.9504   38.5309 H         1 <1>         0.0530 
     32 H6         -8.8065   22.7465   42.1890 H         1 <1>         0.0530 
     33 H7        -10.3387   24.3863   43.2178 H         1 <1>         0.0525 
     34 H8         -8.1062   21.3960   40.3696 H         1 <1>         0.0494 
     35 H9        -10.3823   20.6215   38.4339 H         1 <1>         0.0508 
     36 H10       -10.1338   19.9708   40.0795 H         1 <1>         0.0508 
     37 H11        -8.8294   22.6408   37.6402 H         1 <1>         0.0517 
     38 H12        -7.5452   23.1934   38.7517 H         1 <1>         0.0517 
     39 H13        -6.6851   17.9758   37.3373 H         1 <1>         0.0932 
     40 H14        -4.1160   22.3618   35.7086 H         1 <1>         0.2195 
     41 H15        -3.0697   19.3455   37.3088 H         1 <1>         0.0538 
     42 H16        -1.2740   17.8600   36.4929 H         1 <1>         0.0588 
     43 H17        -0.2086   18.2825   34.2893 H         1 <1>         0.0521 
     44 H18        -0.9784   20.1842   32.8876 H         1 <1>         0.0588 
     45 H19        -2.8377   21.6229   33.6631 H         1 <1>         0.0538 
@<TRIPOS>BOND
     1    2    1 1    
     2    2    3 1    
     3    3    4 ar   
     4    4    5 ar   
     5    5    6 ar   
     6    6    7 ar   
     7    7    8 ar   
     8    3    8 ar   
     9    6    9 1    
    10    9   10 1    
    11   10   11 1    
    12   11   12 2    
    13   11   13 1    
    14   13   14 ar   
    15   14   15 1    
    16    9   15 1    
    17   14   16 ar   
    18   16   17 ar   
    19   17   18 ar   
    20   18   19 ar   
    21   13   19 ar   
    22   17   20 1    
    23   20   21 1    
    24   21   22 ar   
    25   22   23 ar   
    26   23   24 ar   
    27   24   25 ar   
    28   25   26 ar   
    29   21   26 ar   
    30    1   27 1    
    31    1   28 1    
    32    1   29 1    
    33    4   30 1    
    34    5   31 1    
    35    7   32 1    
    36    8   33 1    
    37    9   34 1    
    38   10   35 1    
    39   10   36 1    
    40   15   37 1    
    41   15   38 1    
    42   19   39 1    
    43   20   40 1    
    44   22   41 1    
    45   23   42 1    
    46   24   43 1    
    47   25   44 1    
    48   26   45 1    
@<TRIPOS>SUBSTRUCTURE
     1 ****        2 TEMP              0 ****  ****    0 ROOT 
@<TRIPOS>NORMAL
@<TRIPOS>FF_PBC
FORCE_FIELD_SETUP_FEATURE Force Field Setup information
v1.0  0 0.000000 0.000000 0.000000 0.000000 0.000000 0.000000 NONE 0 0 0 0 1 0 0 0 0 0 0 0 0
