#	Name:			PISM00901.1
#	Creating user name:	baoopengkun
#	Creation time:		Fri Dec 14 10:18:06 2018

#	Modifying user name:	baoopengkun
#	Modification time:	Fri Dec 14 10:22:41 2018

@<TRIPOS>MOLECULE
PISM00901.1
   31    32     1     1     0
SMALL
GAST_HUCK


@<TRIPOS>ATOM
      1 C1         17.2538   16.0958   -3.5445 C.ar      1 <1>        -0.0397 
      2 C2         18.5397   16.1937   -3.0056 C.ar      1 <1>        -0.0722 
      3 C3         18.7213   16.1441   -1.6206 C.ar      1 <1>        -0.0740 
      4 C4         17.6151   16.0162   -0.7756 C.ar      1 <1>        -0.0722 
      5 C5         16.3294   15.9252   -1.3165 C.ar      1 <1>        -0.0397 
      6 C6         16.1484   15.9330   -2.7035 C.ar      1 <1>         0.0649 
      7 N7         14.9119   15.7842   -3.2380 N.pl3     1 <1>        -0.2193 
      8 C8         14.3416   16.8596   -4.0502 C.3       1 <1>         0.0386 
      9 C9         14.2358   14.6798   -3.0516 C.2       1 <1>         0.2702 
     10 O10        13.1315   14.5231   -3.5453 O.2       1 <1>        -0.3658 
     11 S11        14.9166   13.3378   -2.0928 S.3       1 <1>         0.0253 
     12 C12        15.2088   12.2671   -3.5320 C.3       1 <1>         0.1804 
     13 C13        16.1519   12.9730   -4.4783 C.2       1 <1>        -0.0208 
     14 C14        17.3442   12.3805   -4.4747 C.2       1 <1>         0.0274 
     15 C15        17.1663   11.2583   -3.5595 C.2       1 <1>         0.2478 
     16 O16        15.9477   11.1271   -3.0482 O.3       1 <1>        -0.2504 
     17 O17        18.0666   10.4828   -3.2878 O.2       1 <1>        -0.3691 
     18 C18        18.5802   12.7775   -5.2340 C.3       1 <1>        -0.0324 
     19 H1         17.1147   16.1427   -4.6195 H         1 <1>         0.0529 
     20 H2         19.3971   16.3079   -3.6620 H         1 <1>         0.0586 
     21 H3         19.7209   16.2065   -1.2013 H         1 <1>         0.0514 
     22 H4         17.7546   15.9883    0.3009 H         1 <1>         0.0586 
     23 H5         15.4699   15.8509   -0.6579 H         1 <1>         0.0529 
     24 H6         14.9698   17.7645   -4.0386 H         1 <1>         0.0523 
     25 H7         13.3461   17.1340   -3.6669 H         1 <1>         0.0523 
     26 H8         14.2400   16.5189   -5.0923 H         1 <1>         0.0523 
     27 H9         14.2625   11.9643   -4.0078 H         1 <1>         0.0972 
     28 H10        15.9015   13.8488   -5.0754 H         1 <1>         0.0687 
     29 H11        18.4649   12.5031   -6.2930 H         1 <1>         0.0347 
     30 H12        19.4606   12.2610   -4.8233 H         1 <1>         0.0347 
     31 H13        18.7376   13.8637   -5.1569 H         1 <1>         0.0347 
@<TRIPOS>BOND
     1    2    1 ar   
     2    2    3 ar   
     3    3    4 ar   
     4    4    5 ar   
     5    5    6 ar   
     6    1    6 ar   
     7    6    7 1    
     8    7    8 1    
     9    7    9 1    
    10    9   10 2    
    11    9   11 1    
    12   11   12 1    
    13   12   13 1    
    14   13   14 2    
    15   14   15 1    
    16   15   16 1    
    17   12   16 1    
    18   15   17 2    
    19   14   18 1    
    20    1   19 1    
    21    2   20 1    
    22    3   21 1    
    23    4   22 1    
    24    5   23 1    
    25    8   24 1    
    26    8   25 1    
    27    8   26 1    
    28   12   27 1    
    29   13   28 1    
    30   18   29 1    
    31   18   30 1    
    32   18   31 1    
@<TRIPOS>SUBSTRUCTURE
     1 ****        2 TEMP              0 ****  ****    0 ROOT 
@<TRIPOS>NORMAL
@<TRIPOS>FF_PBC
FORCE_FIELD_SETUP_FEATURE Force Field Setup information
v1.0  0 0.000000 0.000000 0.000000 0.000000 0.000000 0.000000 NONE 0 0 0 0 1 0 0 0 0 0 0 0 0
