#	Name:			PISM00710
#	Creating user name:	baoopengkun
#	Creation time:		Sun Jan 20 21:34:04 2019

#	Modifying user name:	baoopengkun
#	Modification time:	Sun Jan 20 21:38:01 2019

@<TRIPOS>MOLECULE
PISM00710
   82    85     1     1     0
SMALL
GAST_HUCK


@<TRIPOS>ATOM
      1 C1          1.3808    3.3491    8.0036 C.3       1 <1>        -0.0163 
      2 C2          0.9901    2.1130    8.8600 C.3       1 <1>         0.0819 
      3 C3          2.2565    1.3698    9.3637 C.3       1 <1>         0.0835 
      4 C4          3.1166    2.3511   10.1978 C.3       1 <1>        -0.0043 
      5 C5          3.5252    3.5841    9.3357 C.3       1 <1>         0.0512 
      6 C6          2.3133    4.3788    8.7255 C.3       1 <1>        -0.0071 
      7 C7          2.7884    5.5033    7.7078 C.3       1 <1>        -0.0291 
      8 C8          4.0191    5.1140    6.8094 C.3       1 <1>        -0.0228 
      9 C9          5.3984    5.2504    7.5523 C.3       1 <1>         0.0168 
     10 S10         5.4099    5.7571    9.3113 S.3       1 <1>        -0.0496 
     11 C11         4.4408    4.4942   10.1126 C.2       1 <1>         0.1678 
     12 O12         4.5173    4.3618   11.3229 O.2       1 <1>        -0.3788 
     13 C13         1.6435    6.0921    6.8205 C.3       1 <1>        -0.0488 
     14 C14         2.0847    7.3812    6.0534 C.3       1 <1>        -0.0468 
     15 C15         3.5188    7.3073    5.4203 C.3       1 <1>        -0.0258 
     16 C16         3.9451    5.8139    5.4061 C.3       1 <1>        -0.0314 
     17 C17         5.1481    5.7157    4.4332 C.3       1 <1>        -0.0491 
     18 C18         4.8747    6.8582    3.4121 C.3       1 <1>        -0.0491 
     19 C19         3.5958    7.6239    3.8834 C.3       1 <1>        -0.0304 
     20 O20         0.1001    1.2460    8.1324 O.3       1 <1>        -0.3892 
     21 O21         3.0786    0.8865    8.2833 O.3       1 <1>        -0.3891 
     22 H1          0.4330    3.8231    7.7059 H         1 <1>         0.0298 
     23 C23         1.5228    5.0712    9.8907 C.3       1 <1>        -0.0568 
     24 C24         4.5239    8.2010    6.2142 C.3       1 <1>        -0.0590 
     25 C25         3.5705    9.1199    3.4030 C.3       1 <1>        -0.0120 
     26 C26         3.6837    9.1981    1.8420 C.3       1 <1>         0.0841 
     27 C27         3.7156   10.6588    1.2723 C.3       1 <1>         0.0841 
     28 C28         4.4543   10.7862   -0.1113 C.3       1 <1>        -0.0130 
     29 C29         5.9709   11.1810    0.0474 C.3       1 <1>        -0.0417 
     30 C30         6.7225   11.2652   -1.3167 C.3       1 <1>        -0.0623 
     31 C31         6.7700   10.2171    0.9747 C.3       1 <1>        -0.0623 
     32 C32         2.3024    9.8748    3.8969 C.3       1 <1>        -0.0597 
     33 O33         2.5881    8.4558    1.2663 O.3       1 <1>        -0.3890 
     34 O34         2.3694   11.1697    1.2338 O.3       1 <1>        -0.3890 
     35 C35         3.7161   11.8076   -1.0316 C.3       1 <1>        -0.0597 
     36 H2          1.8745    2.9785    7.0933 H         1 <1>         0.0298 
     37 H3          0.3969    2.4246    9.7337 H         1 <1>         0.0619 
     38 H4          1.9522    0.5221   10.0049 H         1 <1>         0.0621 
     39 H5          4.0259    1.8139   10.5188 H         1 <1>         0.0319 
     40 H6          2.5839    2.6388   11.1155 H         1 <1>         0.0319 
     41 H7          4.1396    3.1282    8.5512 H         1 <1>         0.0545 
     42 H8          3.0838    6.3823    8.2958 H         1 <1>         0.0311 
     43 H9          3.9180    4.0528    6.5299 H         1 <1>         0.0316 
     44 H10         6.0042    6.0560    7.1277 H         1 <1>         0.0407 
     45 H11         5.9977    4.3301    7.4593 H         1 <1>         0.0407 
     46 H12         0.7621    6.3695    7.4175 H         1 <1>         0.0268 
     47 H13         1.2963    5.3344    6.1018 H         1 <1>         0.0268 
     48 H14         2.0382    8.2220    6.7649 H         1 <1>         0.0271 
     49 H15         1.3206    7.5690    5.2824 H         1 <1>         0.0271 
     50 H16         3.1568    5.2892    4.8329 H         1 <1>         0.0309 
     51 H17         5.2007    4.7236    3.9513 H         1 <1>         0.0268 
     52 H18         6.1217    5.8848    4.9121 H         1 <1>         0.0268 
     53 H19         4.7382    6.4418    2.3994 H         1 <1>         0.0268 
     54 H20         5.7434    7.5373    3.3846 H         1 <1>         0.0268 
     55 H21         2.7306    7.1322    3.4059 H         1 <1>         0.0310 
     56 H22         0.4540    0.9378    7.3057 H         1 <1>         0.2099 
     57 H23         2.6637    0.2062    7.7637 H         1 <1>         0.2099 
     58 H24         0.6085    5.5615    9.5331 H         1 <1>         0.0237 
     59 H25         2.1400    5.8378   10.3831 H         1 <1>         0.0237 
     60 H26         1.2025    4.3814   10.6784 H         1 <1>         0.0237 
     61 H27         4.5500    7.9311    7.2770 H         1 <1>         0.0235 
     62 H28         4.2255    9.2572    6.1739 H         1 <1>         0.0235 
     63 H29         5.5449    8.1321    5.8146 H         1 <1>         0.0235 
     64 H30         4.4515    9.6349    3.8188 H         1 <1>         0.0327 
     65 H31         4.6115    8.6907    1.5489 H         1 <1>         0.0622 
     66 H32         4.2251   11.3341    1.9771 H         1 <1>         0.0622 
     67 H33         4.4029    9.8174   -0.6340 H         1 <1>         0.0326 
     68 H34         6.0213   12.1836    0.5074 H         1 <1>         0.0299 
     69 H35         6.5667   10.3414   -1.8946 H         1 <1>         0.0232 
     70 H36         7.8052   11.3951   -1.1652 H         1 <1>         0.0232 
     71 H37         6.3946   12.1244   -1.9189 H         1 <1>         0.0232 
     72 H38         6.7574    9.1962    0.5635 H         1 <1>         0.0232 
     73 H39         6.3735   10.2046    1.9998 H         1 <1>         0.0232 
     74 H40         7.8209   10.5365    1.0542 H         1 <1>         0.0232 
     75 H41         1.3977    9.4342    3.4515 H         1 <1>         0.0233 
     76 H42         2.3412   10.9407    3.6339 H         1 <1>         0.0233 
     77 H43         2.2094    9.8442    4.9879 H         1 <1>         0.0233 
     78 H44         2.6449    8.3469    0.3220 H         1 <1>         0.2099 
     79 H45         1.7676   10.5838    0.7862 H         1 <1>         0.2099 
     80 H46         4.1476   11.8454   -2.0407 H         1 <1>         0.0233 
     81 H47         3.7591   12.8140   -0.5877 H         1 <1>         0.0233 
     82 H48         2.6611   11.5357   -1.1793 H         1 <1>         0.0233 
@<TRIPOS>BOND
     1    2    1 1    
     2    2    3 1    
     3    3    4 1    
     4    4    5 1    
     5    5    6 1    
     6    1    6 1    
     7    6    7 1    
     8    7    8 1    
     9    8    9 1    
    10    9   10 1    
    11   10   11 1    
    12   11   12 2    
    13    5   11 1    
    14    7   13 1    
    15   13   14 1    
    16   14   15 1    
    17   15   16 1    
    18    8   16 1    
    19   16   17 1    
    20   17   18 1    
    21   18   19 1    
    22   15   19 1    
    23    2   20 1    
    24    3   21 1    
    25    1   22 1    
    26    6   23 1    
    27   15   24 1    
    28   19   25 1    
    29   25   26 1    
    30   26   27 1    
    31   27   28 1    
    32   28   29 1    
    33   29   30 1    
    34   29   31 1    
    35   25   32 1    
    36   26   33 1    
    37   27   34 1    
    38   28   35 1    
    39    1   36 1    
    40    2   37 1    
    41    3   38 1    
    42    4   39 1    
    43    4   40 1    
    44    5   41 1    
    45    7   42 1    
    46    8   43 1    
    47    9   44 1    
    48    9   45 1    
    49   13   46 1    
    50   13   47 1    
    51   14   48 1    
    52   14   49 1    
    53   16   50 1    
    54   17   51 1    
    55   17   52 1    
    56   18   53 1    
    57   18   54 1    
    58   19   55 1    
    59   20   56 1    
    60   21   57 1    
    61   23   58 1    
    62   23   59 1    
    63   23   60 1    
    64   24   61 1    
    65   24   62 1    
    66   24   63 1    
    67   25   64 1    
    68   26   65 1    
    69   27   66 1    
    70   28   67 1    
    71   29   68 1    
    72   30   69 1    
    73   30   70 1    
    74   30   71 1    
    75   31   72 1    
    76   31   73 1    
    77   31   74 1    
    78   32   75 1    
    79   32   76 1    
    80   32   77 1    
    81   33   78 1    
    82   34   79 1    
    83   35   80 1    
    84   35   81 1    
    85   35   82 1    
@<TRIPOS>SUBSTRUCTURE
     1 ****        2 TEMP              0 ****  ****    0 ROOT 
@<TRIPOS>NORMAL
@<TRIPOS>FF_PBC
FORCE_FIELD_SETUP_FEATURE Force Field Setup information
v1.0  0 0.000000 0.000000 0.000000 0.000000 0.000000 0.000000 NONE 0 0 0 0 1 0 0 0 0 0 0 0 0
