#	Name:			PISM01119
#	Creating user name:	14062
#	Creation time:		Fri Jul 12 11:06:06 2019

#	Modifying user name:	14062
#	Modification time:	Fri Jul 12 11:11:27 2019

@<TRIPOS>MOLECULE
PISM01119
  112   115     1     1     0
SMALL
GAST_HUCK


@<TRIPOS>ATOM
      1 C1        -22.1496   -1.0965    3.6166 C.2       1 <1>         0.2372 
      2 O2        -21.0105   -0.5706    3.1570 O.3       1 <1>        -0.2673 
      3 C3        -20.9494    0.0301    1.8492 C.3       1 <1>         0.1278 
      4 C4        -21.9475    1.2751    1.6818 C.3       1 <1>         0.0150 
      5 C5        -23.5221    1.0826    1.3316 C.3       1 <1>        -0.0037 
      6 C6        -24.1091    0.2758    2.5600 C.3       1 <1>         0.1052 
      7 C7        -23.4601   -1.1095    2.8674 C.3       1 <1>         0.0792 
      8 O8        -22.0937   -1.5959    4.7281 O.2       1 <1>        -0.3703 
      9 C9        -24.5169    2.3631    1.0386 C.3       1 <1>         0.0085 
     10 C10       -25.8108    1.9815    0.2171 C.2       1 <1>        -0.0125 
     11 C11       -26.3172    0.7553   -0.0274 C.2       1 <1>        -0.0086 
     12 C12       -26.6736    3.1139   -0.3362 C.3       1 <1>         0.1343 
     13 C13       -27.4377    3.6332    0.8991 C.3       1 <1>         0.0257 
     14 C14       -26.3636    4.2094    1.8621 C.3       1 <1>         0.1142 
     15 C15       -25.2268    3.1745    2.2309 C.3       1 <1>         0.1043 
     16 C16       -27.8647    2.9588   -1.2556 C.2       1 <1>         0.1298 
     17 C17       -28.9510    3.9676   -1.0015 C.3       1 <1>         0.0247 
     18 C18       -28.4520    4.6603    0.2985 C.3       1 <1>        -0.0058 
     19 O19       -27.9547    2.1180   -2.1359 O.2       1 <1>        -0.3495 
     20 H1        -21.5308    1.7805    0.8011 H         1 <1>         0.0358 
     21 C21       -21.6385    2.2008    2.9120 C.3       1 <1>         0.0545 
     22 C22       -20.8702   -1.1130    0.7774 C.3       1 <1>        -0.0284 
     23 C23       -19.4630    0.5570    1.8845 C.3       1 <1>         0.1102 
     24 C24       -23.4699    0.3071   -0.0564 C.3       1 <1>        -0.0625 
     25 O25       -25.5391    0.0677    2.4465 O.3       1 <1>        -0.2714 
     26 H5        -23.9312    0.9140    3.4407 H         1 <1>         0.0674 
     27 H6        -23.4380   -1.7794    2.0080 H         1 <1>         0.0548 
     28 H7        -24.1245   -1.6390    3.5657 H         1 <1>         0.0548 
     29 C29       -23.6120    3.4008    0.2878 C.3       1 <1>        -0.0774 
     30 H9        -25.9441   -0.2168    0.2601 H         1 <1>         0.1826 
     31 H10       -27.2388    0.5845   -0.5752 H         1 <1>         0.1826 
     32 C32       -23.7922    4.8903    3.0704 C.2       1 <1>         0.2276 
     33 C33       -27.2801    6.5947   -0.9725 C.2       1 <1>         0.0719 
     34 O34       -27.1275    4.5827    3.0339 O.3       1 <1>        -0.2691 
     35 H14       -25.9382    5.0715    1.3317 H         1 <1>         0.0671 
     36 H15       -25.7440    2.4223    2.8297 H         1 <1>         0.0594 
     37 O37       -24.4487    3.7415    3.3048 O.3       1 <1>        -0.2799 
     38 H17       -29.9028    3.4347   -0.8506 H         1 <1>         0.0498 
     39 H18       -29.0723    4.6573   -1.8492 H         1 <1>         0.0498 
     40 C40       -27.8974    6.0509    0.0802 C.2       1 <1>        -0.0469 
     41 H20       -29.3019    4.8230    0.9821 H         1 <1>         0.0416 
     42 O42       -23.0572    5.2956    3.9543 O.2       1 <1>        -0.3548 
     43 C43       -26.7479    5.6977    3.6770 C.2       1 <1>         0.2686 
     44 H23       -20.2008   -1.9106    1.1328 H         1 <1>         0.0262 
     45 H24       -20.4509   -0.7371   -0.1688 H         1 <1>         0.0262 
     46 H25       -21.7928   -1.6436    0.5525 H         1 <1>         0.0262 
     47 H26       -19.2721    1.1636    2.7821 H         1 <1>         0.0646 
     48 O48       -18.5044   -0.5253    1.9536 O.3       1 <1>        -0.2738 
     49 C49       -17.2229   -0.1334    1.9653 C.2       1 <1>         0.2307 
     50 O50       -16.8747    1.0350    1.9085 O.2       1 <1>        -0.3707 
     51 C51       -16.2218   -1.2487    2.0560 C.3       1 <1>         0.0372 
     52 H27       -19.2521    1.1615    0.9864 H         1 <1>         0.0646 
     53 H28       -15.1967   -0.8496    2.0404 H         1 <1>         0.0483 
     54 H29       -16.3558   -1.9306    1.2038 H         1 <1>         0.0483 
     55 H30       -16.3781   -1.8030    2.9928 H         1 <1>         0.0483 
     56 C56       -20.5861    3.2814    2.7183 C.2       1 <1>         0.2338 
     57 O57       -20.1597    3.5259    1.6026 O.2       1 <1>        -0.3704 
     58 O58       -20.0948    4.0160    3.7345 O.3       1 <1>        -0.2802 
     59 C59       -20.5036    3.6796    5.0753 C.3       1 <1>         0.0658 
     60 C60       -26.1884   -0.2056    3.5952 C.2       1 <1>         0.2310 
     61 O61       -25.6774   -0.1063    4.6981 O.2       1 <1>        -0.3707 
     62 C62       -27.6192   -0.6475    3.4678 C.3       1 <1>         0.0372 
     63 O63       -25.9234    4.1107   -1.0333 O.3       1 <1>        -0.4154 
     64 O64       -25.8963    6.4567    3.2435 O.2       1 <1>        -0.3671 
     65 C65       -27.5236    5.9834    4.9470 C.3       1 <1>         0.1894 
     66 C66       -27.2025    5.0637    6.1729 C.3       1 <1>         0.0055 
     67 C67       -28.2526    5.2044    7.3207 C.3       1 <1>        -0.0484 
     68 C68       -28.3523    6.6252    7.9386 C.3       1 <1>        -0.0648 
     69 C69       -28.2922    2.5172    1.6018 C.3       1 <1>        -0.0599 
     70 O70       -26.9030    7.8709   -0.8386 O.3       1 <1>        -0.2806 
     71 C71       -27.3308    8.1426    0.3987 C.2       1 <1>         0.0724 
     72 C72       -27.9447    7.1496    1.0429 C.2       1 <1>        -0.0638 
     73 H2        -21.4713    1.6162    3.8238 H         1 <1>         0.0522 
     74 H3        -22.5102    2.7788    3.1175 H         1 <1>         0.0522 
     75 H4        -24.0387    0.7541   -0.8788 H         1 <1>         0.0229 
     76 H11       -23.7950   -0.7357    0.0175 H         1 <1>         0.0229 
     77 H12       -22.4906    0.3024   -0.5426 H         1 <1>         0.0229 
     78 H13       -23.8218    5.5173    2.1820 H         1 <1>         0.1697 
     79 H16       -27.0741    6.0736   -1.9054 H         1 <1>         0.0827 
     80 H19       -20.1024    2.7021    5.3842 H         1 <1>         0.0577 
     81 H21       -21.5932    3.7068    5.2249 H         1 <1>         0.0577 
     82 H22       -20.0604    4.4409    5.7338 H         1 <1>         0.0577 
     83 H31       -27.7521   -1.5907    4.0177 H         1 <1>         0.0483 
     84 H32       -27.8968   -0.8096    2.4159 H         1 <1>         0.0483 
     85 H33       -28.2778    0.1159    3.9071 H         1 <1>         0.0483 
     86 H34       -25.5310    3.7676   -1.8319 H         1 <1>         0.1958 
     87 H35       -28.5631    5.7538    4.6687 H         1 <1>         0.0914 
     88 O88       -27.5797    7.4001    5.2260 O.3       1 <1>        -0.2506 
     89 H37       -26.2142    5.3135    6.5885 H         1 <1>         0.0353 
     90 C90       -27.1247    3.5662    5.7511 C.3       1 <1>        -0.0575 
     91 H39       -27.9669    4.5207    8.1385 H         1 <1>         0.0268 
     92 H40       -29.2481    4.8964    6.9609 H         1 <1>         0.0268 
     93 H41       -27.3506    7.0105    8.1843 H         1 <1>         0.0230 
     94 H42       -28.9460    6.5881    8.8660 H         1 <1>         0.0230 
     95 H43       -28.8542    7.3280    7.2584 H         1 <1>         0.0230 
     96 H44       -29.0205    2.0538    0.9220 H         1 <1>         0.0230 
     97 H45       -28.8604    2.9385    2.4449 H         1 <1>         0.0230 
     98 H46       -27.6915    1.7001    2.0048 H         1 <1>         0.0230 
     99 H47       -27.1858    9.1240    0.8496 H         1 <1>         0.0945 
    100 H48       -28.3765    7.1575    2.0426 H         1 <1>         0.0307 
    101 C101      -26.4212    7.9608    5.5957 C.2       1 <1>         0.2333 
    102 H38       -28.0475    3.2562    5.2373 H         1 <1>         0.0235 
    103 H49       -26.9803    2.9135    6.6260 H         1 <1>         0.0235 
    104 H50       -26.2702    3.3950    5.0828 H         1 <1>         0.0235 
    105 H8        -22.7259    3.6571    0.8742 H         1 <1>         0.0147 
    106 H51       -24.0545    4.3836    0.1210 H         1 <1>         0.0147 
    107 H52       -23.2780    3.0153   -0.6858 H         1 <1>         0.0147 
    108 O108      -25.3755    7.3538    5.7510 O.2       1 <1>        -0.3705 
    109 C109      -26.4804    9.4466    5.8022 C.3       1 <1>         0.0374 
    110 H36       -25.6596    9.7721    6.4585 H         1 <1>         0.0483 
    111 H53       -27.4390    9.7291    6.2620 H         1 <1>         0.0483 
    112 H54       -26.3832    9.9463    4.8277 H         1 <1>         0.0483 
@<TRIPOS>BOND
     1    1    2 1    
     2    3    2 1    
     3    4    3 1    
     4    5    4 1    
     5    5    6 1    
     6    6    7 1    
     7    7    1 1    
     8    1    8 2    
     9    9    5 1    
    10   10    9 1    
    11   10   11 2    
    12   12   10 1    
    13   13   12 1    
    14   13   14 1    
    15   14   15 1    
    16   15    9 1    
    17   12   16 1    
    18   17   16 1    
    19   18   17 1    
    20   18   13 1    
    21   16   19 2    
    22    4   20 1    
    23    4   21 1    
    24    3   22 1    
    25    3   23 1    
    26    5   24 1    
    27    6   25 1    
    28    6   26 1    
    29    7   27 1    
    30    7   28 1    
    31    9   29 1    
    32   11   30 1    
    33   11   31 1    
    34   37   32 1    
    35   40   33 2    
    36   14   34 1    
    37   14   35 1    
    38   15   36 1    
    39   15   37 1    
    40   17   38 1    
    41   17   39 1    
    42   18   40 1    
    43   18   41 1    
    44   32   42 2    
    45   34   43 1    
    46   22   44 1    
    47   22   45 1    
    48   22   46 1    
    49   23   47 1    
    50   23   48 1    
    51   48   49 1    
    52   49   50 2    
    53   49   51 1    
    54   23   52 1    
    55   51   53 1    
    56   51   54 1    
    57   51   55 1    
    58   21   56 1    
    59   56   57 2    
    60   56   58 1    
    61   58   59 1    
    62   25   60 1    
    63   60   61 2    
    64   60   62 1    
    65   12   63 1    
    66   43   64 2    
    67   43   65 1    
    68   65   66 1    
    69   66   67 1    
    70   67   68 1    
    71   13   69 1    
    72   33   70 1    
    73   70   71 1    
    74   71   72 2    
    75   40   72 1    
    76   21   73 1    
    77   21   74 1    
    78   24   75 1    
    79   24   76 1    
    80   24   77 1    
    81   32   78 1    
    82   33   79 1    
    83   59   80 1    
    84   59   81 1    
    85   59   82 1    
    86   62   83 1    
    87   62   84 1    
    88   62   85 1    
    89   63   86 1    
    90   65   87 1    
    91   65   88 1    
    92   66   89 1    
    93   66   90 1    
    94   67   91 1    
    95   67   92 1    
    96   68   93 1    
    97   68   94 1    
    98   68   95 1    
    99   69   96 1    
   100   69   97 1    
   101   69   98 1    
   102   71   99 1    
   103   72  100 1    
   104   88  101 1    
   105   90  102 1    
   106   90  103 1    
   107   90  104 1    
   108   29  105 1    
   109   29  106 1    
   110   29  107 1    
   111  101  108 2    
   112  101  109 1    
   113  109  110 1    
   114  109  111 1    
   115  109  112 1    
@<TRIPOS>SUBSTRUCTURE
     1 ****        2 TEMP              0 ****  ****    0 ROOT 
@<TRIPOS>NORMAL
@<TRIPOS>FF_PBC
FORCE_FIELD_SETUP_FEATURE Force Field Setup information
v1.0  0 0.000000 0.000000 0.000000 0.000000 0.000000 0.000000 NONE 0 0 0 0 1 0 0 0 0 0 0 0 0
