#	Name:			PISM00066
#	Creating user name:	baoopengkun
#	Creation time:		Thu Dec 27 11:30:22 2018

#	Modifying user name:	baoopengkun
#	Modification time:	Thu Dec 27 11:32:36 2018

@<TRIPOS>MOLECULE
PISM00066
   41    43     1     1     0
SMALL
GAST_HUCK


@<TRIPOS>ATOM
      1 O1        -11.5405   14.7243   -8.6046 O.3       1 <1>        -0.2498 
      2 C2        -11.4926   15.8860   -9.2634 C.2       1 <1>         0.0869 
      3 C3        -12.6658   16.4581   -9.5368 C.2       1 <1>        -0.0553 
      4 C4        -13.6308   15.5279   -8.9576 C.2       1 <1>        -0.0428 
      5 C5        -12.8619   14.5627   -8.4455 C.2       1 <1>         0.1898 
      6 C6        -13.3849   13.3595   -7.7562 C.2       1 <1>         0.2526 
      7 O7        -12.8299   12.2974   -7.9886 O.2       1 <1>        -0.3725 
      8 N8        -14.3997   13.3782   -6.9345 N.pl3     1 <1>        -0.2418 
      9 C9        -15.0240   14.5200   -6.5643 C.ar      1 <1>         0.0505 
     10 C10       -16.3868   14.6832   -6.8285 C.ar      1 <1>        -0.0517 
     11 C11       -17.0405   15.8547   -6.4370 C.ar      1 <1>        -0.0815 
     12 C12       -16.3344   16.8550   -5.7627 C.ar      1 <1>        -0.0505 
     13 C13       -14.9760   16.6891   -5.4761 C.ar      1 <1>         0.0557 
     14 C14       -14.3179   15.5294   -5.9010 C.ar      1 <1>        -0.0180 
     15 N15       -14.3234   17.6411   -4.7661 N.pl3     1 <1>        -0.2370 
     16 C16       -13.2939   18.2977   -5.2435 C.2       1 <1>         0.1866 
     17 S17       -12.7732   17.9732   -6.8471 S.2       1 <1>        -0.2687 
     18 N18       -12.6597   19.2285   -4.4818 N.am      1 <1>        -0.1914 
     19 C19       -11.5800   19.9723   -4.8286 C.2       1 <1>         0.2419 
     20 O20       -11.0052   19.8487   -5.8961 O.2       1 <1>        -0.3692 
     21 C21       -11.0040   21.0113   -3.8847 C.ar      1 <1>         0.0576 
     22 C22       -11.8101   21.7502   -3.0086 C.ar      1 <1>        -0.0413 
     23 C23       -11.2358   22.6497   -2.1052 C.ar      1 <1>        -0.0561 
     24 C24        -9.8536   22.8551   -2.1028 C.ar      1 <1>        -0.0575 
     25 C25        -9.0483   22.1605   -3.0089 C.ar      1 <1>        -0.0561 
     26 C26        -9.6235   21.2446   -3.8946 C.ar      1 <1>        -0.0413 
     27 H1        -10.5445   16.3351   -9.5584 H         1 <1>         0.1042 
     28 H2        -12.8633   17.3932  -10.0600 H         1 <1>         0.0365 
     29 H3        -14.7152   15.6242   -8.9680 H         1 <1>         0.0437 
     30 H4        -14.7288   12.4849   -6.5386 H         1 <1>         0.2091 
     31 H5        -16.9360   13.8999   -7.3410 H         1 <1>         0.0434 
     32 H6        -18.0958   15.9873   -6.6558 H         1 <1>         0.0558 
     33 H7        -16.8426   17.7646   -5.4593 H         1 <1>         0.0436 
     34 H8        -13.2594   15.4021   -5.7009 H         1 <1>         0.0439 
     35 H9        -14.6783   17.8492   -3.8223 H         1 <1>         0.2183 
     36 H10       -13.0006   19.3709   -3.5581 H         1 <1>         0.2372 
     37 H11       -12.8895   21.6461   -3.0247 H         1 <1>         0.0670 
     38 H12       -11.8640   23.1934   -1.4057 H         1 <1>         0.0629 
     39 H13        -9.4071   23.5532   -1.4010 H         1 <1>         0.0653 
     40 H14        -7.9759   22.3314   -3.0239 H         1 <1>         0.0629 
     41 H15        -8.9874   20.7087   -4.5926 H         1 <1>         0.0670 
@<TRIPOS>BOND
     1    2    1 1    
     2    2    3 2    
     3    3    4 1    
     4    4    5 2    
     5    1    5 1    
     6    5    6 1    
     7    6    7 2    
     8    6    8 1    
     9    8    9 1    
    10    9   10 ar   
    11   10   11 ar   
    12   11   12 ar   
    13   12   13 ar   
    14   13   14 ar   
    15    9   14 ar   
    16   13   15 1    
    17   15   16 1    
    18   16   17 2    
    19   16   18 am   
    20   18   19 am   
    21   19   20 2    
    22   19   21 1    
    23   21   22 ar   
    24   22   23 ar   
    25   23   24 ar   
    26   24   25 ar   
    27   25   26 ar   
    28   21   26 ar   
    29    2   27 1    
    30    3   28 1    
    31    4   29 1    
    32    8   30 1    
    33   10   31 1    
    34   11   32 1    
    35   12   33 1    
    36   14   34 1    
    37   15   35 1    
    38   18   36 1    
    39   22   37 1    
    40   23   38 1    
    41   24   39 1    
    42   25   40 1    
    43   26   41 1    
@<TRIPOS>SUBSTRUCTURE
     1 ****        2 TEMP              0 ****  ****    0 ROOT 
@<TRIPOS>NORMAL
@<TRIPOS>FF_PBC
FORCE_FIELD_SETUP_FEATURE Force Field Setup information
v1.0  0 0.000000 0.000000 0.000000 0.000000 0.000000 0.000000 NONE 0 0 0 0 1 0 0 0 0 0 0 0 0
