#	Name:			PISM00767.1
#	Creating user name:	baoopengkun
#	Creation time:		Fri Dec 14 23:08:24 2018

#	Modifying user name:	baoopengkun
#	Modification time:	Fri Dec 14 23:13:43 2018

@<TRIPOS>MOLECULE
PISM00767.1
   38    40     1     1     0
SMALL
NO_CHARGES


@<TRIPOS>ATOM
      1 C1         29.4186   14.6613   -9.2080 C.ar      1 <1>         0.0000 
      2 C2         29.5101   16.0569   -9.2673 C.ar      1 <1>         0.0000 
      3 C3         29.1087   16.7507  -10.4165 C.ar      1 <1>         0.0000 
      4 C4         28.6029   16.0596  -11.5232 C.ar      1 <1>         0.0000 
      5 C5         28.5104   14.6694  -11.4508 C.ar      1 <1>         0.0000 
      6 C6         28.9185   13.9784  -10.3186 C.ar      1 <1>         0.0000 
      7 C7         28.7463   12.4893  -10.4875 C.2       1 <1>         0.0000 
      8 O8         29.0660   11.7669   -9.5593 O.2       1 <1>         0.0000 
      9 N9         28.2458   12.1133  -11.6942 N.am      1 <1>         0.0000 
     10 S10        27.8918   13.5798  -12.6823 S.o2      1 <1>         0.0000 
     11 O11        28.7583   13.6117  -13.8439 O.2       1 <1>         0.0000 
     12 O12        26.4599   13.7762  -12.7952 O.2       1 <1>         0.0000 
     13 C13        28.0147   10.8833  -12.2340 C.2       1 <1>         0.0000 
     14 C14        27.4464   10.8385  -13.5989 C.2       1 <1>         0.0000 
     15 O15        26.3831   11.3911  -13.8291 O.2       1 <1>         0.0000 
     16 C16        28.1460   10.1175  -14.7212 C.3       1 <1>         0.0000 
     17 C17        28.2556    9.6910  -11.6641 C.2       1 <1>         0.0000 
     18 O18        28.7832    9.5984  -10.4408 O.3       1 <1>         0.0000 
     19 C19        28.9803    8.2466   -9.9914 C.3       1 <1>         0.0000 
     20 C20        29.6478    8.2931   -8.6385 C.2       1 <1>         0.0000 
     21 C21        30.8483    7.7184   -8.6853 C.2       1 <1>         0.0000 
     22 C22        30.9647    7.2809  -10.0716 C.2       1 <1>         0.0000 
     23 O23        29.9181    7.5516  -10.8436 O.3       1 <1>         0.0000 
     24 C24        31.8434    7.5446   -7.5710 C.3       1 <1>         0.0000 
     25 O25        31.9510    6.7042  -10.4991 O.2       1 <1>         0.0000 
     26 H1         29.7295   14.1202   -8.3206 H         1 <1>         0.0000 
     27 H2         29.8964   16.6062   -8.4142 H         1 <1>         0.0000 
     28 H3         29.1898   17.8328  -10.4494 H         1 <1>         0.0000 
     29 H4         28.2877   16.5855  -12.4181 H         1 <1>         0.0000 
     30 H5         27.5249    9.2768  -15.0649 H         1 <1>         0.0000 
     31 H6         29.1247    9.7305  -14.3991 H         1 <1>         0.0000 
     32 H7         28.3044   10.8128  -15.5593 H         1 <1>         0.0000 
     33 H8         28.0079    8.7872  -12.2272 H         1 <1>         0.0000 
     34 H9         28.0313    7.6903   -9.9212 H         1 <1>         0.0000 
     35 H10        29.2060    8.7400   -7.7484 H         1 <1>         0.0000 
     36 H11        31.3234    7.4200   -6.6093 H         1 <1>         0.0000 
     37 H12        32.4898    8.4331   -7.5186 H         1 <1>         0.0000 
     38 H13        32.4666    6.6570   -7.7557 H         1 <1>         0.0000 
@<TRIPOS>BOND
     1    2    1 ar   
     2    2    3 ar   
     3    3    4 ar   
     4    4    5 ar   
     5    5    6 ar   
     6    1    6 ar   
     7    6    7 1    
     8    7    8 2    
     9    7    9 am   
    10    9   10 1    
    11    5   10 1    
    12   10   11 2    
    13   10   12 2    
    14    9   13 am   
    15   13   14 1    
    16   14   15 2    
    17   14   16 1    
    18   13   17 2    
    19   17   18 1    
    20   18   19 1    
    21   19   20 1    
    22   20   21 2    
    23   21   22 1    
    24   22   23 1    
    25   19   23 1    
    26   21   24 1    
    27   22   25 2    
    28    1   26 1    
    29    2   27 1    
    30    3   28 1    
    31    4   29 1    
    32   16   30 1    
    33   16   31 1    
    34   16   32 1    
    35   17   33 1    
    36   19   34 1    
    37   20   35 1    
    38   24   36 1    
    39   24   37 1    
    40   24   38 1    
@<TRIPOS>SUBSTRUCTURE
     1 ****        2 TEMP              0 ****  ****    0 ROOT 
@<TRIPOS>NORMAL
@<TRIPOS>FF_PBC
FORCE_FIELD_SETUP_FEATURE Force Field Setup information
v1.0  0 0.000000 0.000000 0.000000 0.000000 0.000000 0.000000 NONE 0 0 0 0 0 0 0 0 0 0 0 0 0
