#	Name:			PISM00835.3
#	Creating user name:	baoopengkun
#	Creation time:		Fri Nov 30 18:55:18 2018

#	Modifying user name:	baoopengkun
#	Modification time:	Fri Nov 30 19:05:43 2018

@<TRIPOS>MOLECULE
PISM00835.3
   31    32     1     2     0
SMALL
GAST_HUCK


@<TRIPOS>ATOM
      1 C1        -21.5724   -0.1749   14.4733 C.ar      1 <1>        -0.0351 
      2 C2        -22.7053    0.3610   13.8552 C.ar      1 <1>        -0.0352 
      3 C3        -22.5772    1.5082   13.0681 C.ar      1 <1>         0.0095 
      4 N4        -21.3687    2.0827   12.9020 N.ar      1 <1>        -0.2976 
      5 C5        -20.2643    1.5908   13.5009 C.ar      1 <1>         0.0188 
      6 C6        -20.3342    0.4605   14.3235 C.ar      1 <1>         0.0235 
      7 C7        -19.0834   -0.0412   15.0166 C.2       1 <1>         0.0784 
      8 C8        -19.2220   -0.8798   16.2763 C.3       1 <1>         0.0419 
      9 N9        -19.3921   -2.2985   15.8968 N.3       1 <1>        -0.3188 
     10 N10       -17.9627    0.2652   14.4835 N.2       1 <1>        -0.1559 
     11 O11       -16.9049   -0.2953   15.2221 O.3       1 <1>        -0.1963 
     12 C12       -16.0462    0.7205   15.7526 C.3       1 <1>         0.2541 
     13 C13       -16.8349    1.6378   16.6568 C.2       1 <1>         0.0005 
     14 C14       -16.4094    1.5295   17.9138 C.2       1 <1>         0.0293 
     15 C15       -15.3284    0.5547   17.8262 C.2       1 <1>         0.2496 
     16 O16       -15.0696    0.0944   16.6084 O.3       1 <1>        -0.2290 
     17 O17       -14.6973    0.1905   18.8032 O.2       1 <1>        -0.3691 
     18 C18       -16.9160    2.2321   19.1435 C.3       1 <1>        -0.0323 
     19 H1        -21.6675   -1.0847   15.0561 H         1 <1>         0.0732 
     20 H2        -23.6754   -0.1093   13.9828 H         1 <1>         0.0704 
     21 H3        -23.4458    1.9431   12.5849 H         1 <1>         0.0808 
     22 H4        -19.3173    2.0927   13.3351 H         1 <1>         0.0824 
     23 H5        -20.1114   -0.5390   16.8296 H         1 <1>         0.0589 
     24 H6        -18.3740   -0.7631   16.9705 H         1 <1>         0.0589 
     25 H7        -19.5264   -2.9188   16.7738 H         1 <1>         0.1206 
     26 H8        -18.5299   -2.6446   15.3407 H         1 <1>         0.1206 
     27 H9        -15.5526    1.2734   14.9378 H         1 <1>         0.1227 
     28 H10       -17.6431    2.2873   16.3224 H         1 <1>         0.0707 
     29 H11       -17.8782    2.7279   18.9452 H         1 <1>         0.0347 
     30 H12       -16.1809    2.9862   19.4614 H         1 <1>         0.0347 
     31 H13       -17.0520    1.5004   19.9540 H         1 <1>         0.0347 
@<TRIPOS>BOND
     1    2    1 ar   
     2    2    3 ar   
     3    3    4 ar   
     4    4    5 ar   
     5    5    6 ar   
     6    1    6 ar   
     7    6    7 1    
     8    7    8 1    
     9    8    9 1    
    10    7   10 2    
    11   10   11 1    
    12   11   12 1    
    13   12   13 1    
    14   13   14 2    
    15   14   15 1    
    16   15   16 1    
    17   12   16 1    
    18   15   17 2    
    19   14   18 1    
    20    1   19 1    
    21    2   20 1    
    22    3   21 1    
    23    5   22 1    
    24    8   23 1    
    25    8   24 1    
    26    9   25 1    
    27    9   26 1    
    28   12   27 1    
    29   13   28 1    
    30   18   29 1    
    31   18   30 1    
    32   18   31 1    
@<TRIPOS>SUBSTRUCTURE
     1 ****        2 TEMP              0 ****  ****    0 ROOT 
@<TRIPOS>NORMAL
@<TRIPOS>FF_PBC
FORCE_FIELD_SETUP_FEATURE Force Field Setup information
v1.0  0 0.000000 0.000000 0.000000 0.000000 0.000000 0.000000 NONE 0 0 0 0 1 0 0 0 0 0 0 0 0
@<TRIPOS>RENDERING_ATTRS
ANTIALIASED_LINES 
*
