#	Name:			PISM00532
#	Creating user name:	malab
#	Creation time:		Fri Apr 05 22:23:58 2019

#	Modifying user name:	malab
#	Modification time:	Fri Apr 05 22:24:29 2019

@<TRIPOS>MOLECULE
PISM00532
   53    53     1     1     0
SMALL
GAST_HUCK


@<TRIPOS>ATOM
      1 C1         12.0316    6.7851   -0.3200 C.3       1 <1>        -0.0653 
      2 C2         13.3885    6.9602   -1.0511 C.3       1 <1>        -0.0559 
      3 C3         14.5789    6.5389   -0.1467 C.3       1 <1>        -0.0532 
      4 C4         15.9339    6.6953   -0.8890 C.3       1 <1>        -0.0506 
      5 C5         17.1267    6.2874    0.0150 C.3       1 <1>        -0.0240 
      6 C6         18.4558    6.4366   -0.7633 C.3       1 <1>         0.0870 
      7 O7         19.0213    7.7199   -0.6985 O.3       1 <1>        -0.3663 
      8 C8         19.7414    6.8087    0.0954 C.3       1 <1>         0.0915 
      9 C9         21.1387    6.4978   -0.4957 C.3       1 <1>        -0.0075 
     10 C10        22.0878    7.6509   -0.2721 C.2       1 <1>        -0.0961 
     11 C11        23.2829    7.7749   -0.8696 C.2       1 <1>        -0.0986 
     12 C12        23.8762    6.7738   -1.8354 C.3       1 <1>        -0.0365 
     13 C13        25.4165    6.6762   -1.6605 C.3       1 <1>        -0.0464 
     14 C14        26.0323    5.6150   -2.6141 C.3       1 <1>        -0.0515 
     15 C15        27.5788    5.5538   -2.4764 C.3       1 <1>        -0.0528 
     16 C16        28.1895    4.4621   -3.3986 C.3       1 <1>        -0.0509 
     17 C17        29.7396    4.4399   -3.2970 C.3       1 <1>        -0.0348 
     18 C18        30.3592    3.3451   -4.2072 C.3       1 <1>         0.0485 
     19 C19        31.8713    3.3381   -4.1443 C.2       1 <1>         0.2312 
     20 O20        32.4826    4.1387   -3.4588 O.2       1 <1>        -0.3706 
     21 O21        32.5499    2.4330   -4.8580 O.3       1 <1>        -0.2927 
     22 H1         12.0025    7.4024    0.5918 H         1 <1>         0.0230 
     23 H2         11.8796    5.7311   -0.0388 H         1 <1>         0.0230 
     24 H3         11.2036    7.0940   -0.9780 H         1 <1>         0.0230 
     25 H4         13.5052    8.0167   -1.3452 H         1 <1>         0.0263 
     26 H5         13.3835    6.3464   -1.9670 H         1 <1>         0.0263 
     27 H6         14.4508    5.4876    0.1591 H         1 <1>         0.0265 
     28 H7         14.5845    7.1645    0.7611 H         1 <1>         0.0265 
     29 H8         16.0660    7.7455   -1.1980 H         1 <1>         0.0266 
     30 H9         15.9311    6.0675   -1.7952 H         1 <1>         0.0266 
     31 H10        17.0286    5.2351    0.3241 H         1 <1>         0.0291 
     32 H11        17.1338    6.9173    0.9189 H         1 <1>         0.0291 
     33 H12        18.6247    5.8907   -1.7044 H         1 <1>         0.0624 
     34 H13        19.6226    7.0098    1.1716 H         1 <1>         0.0642 
     35 H14        21.0542    6.2894   -1.5735 H         1 <1>         0.0414 
     36 H15        21.5263    5.6030    0.0144 H         1 <1>         0.0414 
     37 H16        21.7788    8.4376    0.4190 H         1 <1>         0.0451 
     38 H17        23.8725    8.6663   -0.6478 H         1 <1>         0.0450 
     39 H18        23.6433    7.1051   -2.8599 H         1 <1>         0.0388 
     40 H19        23.4475    5.7712   -1.6882 H         1 <1>         0.0388 
     41 H20        25.6443    6.4053   -0.6159 H         1 <1>         0.0285 
     42 H21        25.8708    7.6587   -1.8709 H         1 <1>         0.0285 
     43 H22        25.7707    5.8646   -3.6559 H         1 <1>         0.0267 
     44 H23        25.6061    4.6262   -2.3783 H         1 <1>         0.0267 
     45 H24        27.8456    5.3372   -1.4289 H         1 <1>         0.0265 
     46 H25        28.0031    6.5361   -2.7421 H         1 <1>         0.0265 
     47 H26        27.8958    4.6616   -4.4422 H         1 <1>         0.0267 
     48 H27        27.7881    3.4764   -3.1107 H         1 <1>         0.0267 
     49 H28        30.0382    4.2510   -2.2524 H         1 <1>         0.0291 
     50 H29        30.1370    5.4236   -3.5971 H         1 <1>         0.0291 
     51 H30        30.0562    3.5214   -5.2510 H         1 <1>         0.0518 
     52 H31        29.9892    2.3575   -3.8905 H         1 <1>         0.0518 
     53 H32        32.0093    1.8436   -5.3695 H         1 <1>         0.2539 
@<TRIPOS>BOND
     1    2    1 1    
     2    2    3 1    
     3    3    4 1    
     4    4    5 1    
     5    5    6 1    
     6    6    7 1    
     7    7    8 1    
     8    6    8 1    
     9    8    9 1    
    10    9   10 1    
    11   10   11 2    
    12   11   12 1    
    13   12   13 1    
    14   13   14 1    
    15   14   15 1    
    16   15   16 1    
    17   16   17 1    
    18   17   18 1    
    19   18   19 1    
    20   19   20 2    
    21   19   21 1    
    22    1   22 1    
    23    1   23 1    
    24    1   24 1    
    25    2   25 1    
    26    2   26 1    
    27    3   27 1    
    28    3   28 1    
    29    4   29 1    
    30    4   30 1    
    31    5   31 1    
    32    5   32 1    
    33    6   33 1    
    34    8   34 1    
    35    9   35 1    
    36    9   36 1    
    37   10   37 1    
    38   11   38 1    
    39   12   39 1    
    40   12   40 1    
    41   13   41 1    
    42   13   42 1    
    43   14   43 1    
    44   14   44 1    
    45   15   45 1    
    46   15   46 1    
    47   16   47 1    
    48   16   48 1    
    49   17   49 1    
    50   17   50 1    
    51   18   51 1    
    52   18   52 1    
    53   21   53 1    
@<TRIPOS>SUBSTRUCTURE
     1 ****        2 TEMP              0 ****  ****    0 ROOT 
@<TRIPOS>NORMAL
@<TRIPOS>FF_PBC
FORCE_FIELD_SETUP_FEATURE Force Field Setup information
v1.0  0 0.000000 0.000000 0.000000 0.000000 0.000000 0.000000 NONE 0 0 0 0 1 0 0 0 0 0 0 0 0
