#	Name:			PISM01080
#	Creating user name:	Qinrunwen
#	Creation time:		Mon Apr 01 10:09:06 2019

#	Modifying user name:	Qinrunwen
#	Modification time:	Mon Apr 01 10:13:29 2019

@<TRIPOS>MOLECULE
PISM01080
   40    41     1     1     0
SMALL
GAST_HUCK


@<TRIPOS>ATOM
      1 C1         -8.9066   34.4173    7.2156 C.ar      1 <1>         0.0867 
      2 C2         -7.9668   33.9728    8.1539 C.ar      1 <1>        -0.0346 
      3 C3         -7.4205   34.8741    9.0705 C.ar      1 <1>        -0.0661 
      4 C4         -7.8111   36.2170    9.0641 C.ar      1 <1>        -0.0394 
      5 C5         -8.7735   36.6566    8.1544 C.ar      1 <1>        -0.0661 
      6 C6         -9.3153   35.7543    7.2327 C.ar      1 <1>        -0.0346 
      7 O7         -9.4486   33.5497    6.2618 O.3       1 <1>        -0.3336 
      8 C8         -7.1578   37.1446   10.0645 C.2       1 <1>        -0.0489 
      9 C9         -5.8465   37.4138    9.9418 C.2       1 <1>        -0.0489 
     10 C10        -5.0115   36.9978    8.7444 C.3       1 <1>        -0.0303 
     11 C11        -4.3652   38.2156    8.0334 C.3       1 <1>        -0.0577 
     12 C12        -5.1052   38.1265   11.0513 C.ar      1 <1>        -0.0394 
     13 C13        -4.7042   39.4635   10.9739 C.ar      1 <1>        -0.0661 
     14 C14        -3.8495   39.9869   11.9510 C.ar      1 <1>        -0.0346 
     15 C15        -3.4234   39.1899   13.0175 C.ar      1 <1>         0.0867 
     16 C16        -3.9596   37.9066   13.1743 C.ar      1 <1>        -0.0346 
     17 C17        -4.8002   37.3792   12.1905 C.ar      1 <1>        -0.0661 
     18 C18        -8.0329   37.6873   11.1765 C.3       1 <1>        -0.0303 
     19 C19        -8.8103   36.5474   11.8785 C.3       1 <1>        -0.0577 
     20 O20        -2.4727   39.6888   13.9116 O.3       1 <1>        -0.3336 
     21 H1         -7.6550   32.9324    8.1786 H         1 <1>         0.0542 
     22 H2         -6.6872   34.5316    9.7936 H         1 <1>         0.0571 
     23 H3         -9.0945   37.6919    8.1578 H         1 <1>         0.0571 
     24 H4        -10.0623   36.0888    6.5186 H         1 <1>         0.0542 
     25 H5         -9.0812   32.6724    6.2646 H         1 <1>         0.2483 
     26 H6         -5.5932   36.4641    7.9785 H         1 <1>         0.0395 
     27 H7         -4.2250   36.3156    9.1034 H         1 <1>         0.0395 
     28 H8         -3.8663   37.8907    7.1078 H         1 <1>         0.0249 
     29 H9         -3.6074   38.6960    8.6699 H         1 <1>         0.0249 
     30 H10        -5.1379   38.9557    7.7716 H         1 <1>         0.0249 
     31 H11        -5.0478   40.0915   10.1597 H         1 <1>         0.0571 
     32 H12        -3.5104   41.0146   11.8824 H         1 <1>         0.0542 
     33 H13        -3.7265   37.3147   14.0498 H         1 <1>         0.0542 
     34 H14        -5.2116   36.3811   12.3035 H         1 <1>         0.0571 
     35 H15        -8.7521   38.3908   10.7316 H         1 <1>         0.0395 
     36 H16        -7.4656   38.2449   11.9365 H         1 <1>         0.0395 
     37 H17        -9.4731   36.0290   11.1692 H         1 <1>         0.0249 
     38 H18        -9.4295   36.9535   12.6933 H         1 <1>         0.0249 
     39 H19        -8.1036   35.8175   12.3016 H         1 <1>         0.0249 
     40 H20        -1.9951   39.0102   14.3760 H         1 <1>         0.2483 
@<TRIPOS>BOND
     1    2    1 ar   
     2    2    3 ar   
     3    3    4 ar   
     4    4    5 ar   
     5    6    5 ar   
     6    1    6 ar   
     7    1    7 1    
     8    4    8 1    
     9    8    9 2    
    10    9   10 1    
    11   10   11 1    
    12    9   12 1    
    13   12   13 ar   
    14   13   14 ar   
    15   14   15 ar   
    16   16   15 ar   
    17   17   16 ar   
    18   12   17 ar   
    19    8   18 1    
    20   18   19 1    
    21   15   20 1    
    22    2   21 1    
    23    3   22 1    
    24    5   23 1    
    25    6   24 1    
    26    7   25 1    
    27   10   26 1    
    28   10   27 1    
    29   11   28 1    
    30   11   29 1    
    31   11   30 1    
    32   13   31 1    
    33   14   32 1    
    34   16   33 1    
    35   17   34 1    
    36   18   35 1    
    37   18   36 1    
    38   19   37 1    
    39   19   38 1    
    40   19   39 1    
    41   20   40 1    
@<TRIPOS>SUBSTRUCTURE
     1 ****        2 TEMP              0 ****  ****    0 ROOT 
@<TRIPOS>NORMAL
@<TRIPOS>FF_PBC
FORCE_FIELD_SETUP_FEATURE Force Field Setup information
v1.0  0 0.000000 0.000000 0.000000 0.000000 0.000000 0.000000 NONE 0 0 0 0 1 0 0 0 0 0 0 0 0
