#	Name:			PISM01037
#	Creating user name:	malab
#	Creation time:		Thu Jul 04 18:17:05 2019

#	Modifying user name:	malab
#	Modification time:	Thu Jul 04 18:21:39 2019

@<TRIPOS>MOLECULE
PISM01037
   41    42     1     1     0
SMALL
GAST_HUCK


@<TRIPOS>ATOM
      1 N1          3.9407    9.7767   30.3138 N.2       1 <1>        -0.1732 
      2 C2          5.0074   10.0854   30.9486 C.2       1 <1>         0.0652 
      3 N3          5.1842   11.4298   30.4868 N.2       1 <1>        -0.2828 
      4 C4          4.2708   11.7468   29.6876 C.2       1 <1>         0.1487 
      5 N5          3.4338   10.7599   29.5119 N.pl3     1 <1>        -0.1240 
      6 C6          2.3578   10.7170   28.7597 C.2       1 <1>         0.1339 
      7 C7          1.6097    9.3853   28.7732 C.3       1 <1>         0.1318 
      8 C8          2.1577    8.3428   27.7409 C.3       1 <1>         0.0042 
      9 C9          3.6401    7.9706   28.0357 C.3       1 <1>        -0.0552 
     10 C10         1.2979    7.0438   27.8193 C.3       1 <1>        -0.0552 
     11 C11         2.0650    8.9066   26.2926 C.3       1 <1>        -0.0552 
     12 O12         1.6019    8.7880   30.0856 O.3       1 <1>        -0.3718 
     13 C13         1.9366   11.7660   28.0279 C.2       1 <1>        -0.0380 
     14 C14         0.6758   11.7864   27.1917 C.ar      1 <1>        -0.0563 
     15 C15         0.7698   11.9363   25.8050 C.ar      1 <1>        -0.0730 
     16 C16        -0.3808   11.8987   25.0121 C.ar      1 <1>        -0.0680 
     17 C17        -1.6395   11.7364   25.6018 C.ar      1 <1>        -0.0529 
     18 C18        -1.7347   11.6307   26.9936 C.ar      1 <1>        -0.0680 
     19 C19        -0.5850   11.6785   27.7868 C.ar      1 <1>        -0.0730 
     20 C20        -2.9119   11.6756   24.7481 C.3       1 <1>        -0.0343 
     21 H1          5.6054    9.4939   31.6403 H         1 <1>         0.0879 
     22 H2          4.2836   12.7472   29.2608 H         1 <1>         0.1386 
     23 H3          0.5531    9.5352   28.5122 H         1 <1>         0.0844 
     24 H4          3.7419    7.5634   29.0529 H         1 <1>         0.0238 
     25 H5          4.2965    8.8473   27.9346 H         1 <1>         0.0238 
     26 H6          3.9945    7.2056   27.3280 H         1 <1>         0.0238 
     27 H7          1.6517    6.2952   27.0937 H         1 <1>         0.0238 
     28 H8          0.2411    7.2583   27.5978 H         1 <1>         0.0238 
     29 H9          1.3555    6.5961   28.8231 H         1 <1>         0.0238 
     30 H10         2.4094    8.1588   25.5619 H         1 <1>         0.0238 
     31 H11         2.6965    9.7998   26.1807 H         1 <1>         0.0238 
     32 H12         1.0262    9.1711   26.0433 H         1 <1>         0.0238 
     33 H13         1.2834    9.3753   30.7639 H         1 <1>         0.2141 
     34 H14         2.4664   12.7117   27.9644 H         1 <1>         0.0302 
     35 H15         1.7399   12.0798   25.3399 H         1 <1>         0.0531 
     36 H16        -0.2884   11.9953   23.9352 H         1 <1>         0.0540 
     37 H17        -2.7059   11.5119   27.4634 H         1 <1>         0.0540 
     38 H18        -0.6744   11.6366   28.8680 H         1 <1>         0.0531 
     39 H19        -2.7280   12.0138   23.7173 H         1 <1>         0.0379 
     40 H20        -3.6891   12.3171   25.1902 H         1 <1>         0.0379 
     41 H21        -3.2742   10.6371   24.7228 H         1 <1>         0.0379 
@<TRIPOS>BOND
     1    2    1 2    
     2    2    3 1    
     3    3    4 2    
     4    4    5 1    
     5    1    5 1    
     6    5    6 1    
     7    6    7 1    
     8    7    8 1    
     9    8    9 1    
    10    8   10 1    
    11    8   11 1    
    12    7   12 1    
    13    6   13 2    
    14   13   14 1    
    15   14   15 ar   
    16   15   16 ar   
    17   16   17 ar   
    18   17   18 ar   
    19   18   19 ar   
    20   14   19 ar   
    21   17   20 1    
    22    2   21 1    
    23    4   22 1    
    24    7   23 1    
    25    9   24 1    
    26    9   25 1    
    27    9   26 1    
    28   10   27 1    
    29   10   28 1    
    30   10   29 1    
    31   11   30 1    
    32   11   31 1    
    33   11   32 1    
    34   12   33 1    
    35   13   34 1    
    36   15   35 1    
    37   16   36 1    
    38   18   37 1    
    39   19   38 1    
    40   20   39 1    
    41   20   40 1    
    42   20   41 1    
@<TRIPOS>SUBSTRUCTURE
     1 ****        2 TEMP              0 ****  ****    0 ROOT 
@<TRIPOS>NORMAL
@<TRIPOS>FF_PBC
FORCE_FIELD_SETUP_FEATURE Force Field Setup information
v1.0  0 0.000000 0.000000 0.000000 0.000000 0.000000 0.000000 NONE 0 0 0 0 1 0 0 0 0 0 0 0 0
