#	Name:			PISM00798.1
#	Creating user name:	baoopengkun
#	Creation time:		Sat Dec 15 02:06:24 2018

#	Modifying user name:	baoopengkun
#	Modification time:	Sat Dec 15 02:11:20 2018

@<TRIPOS>MOLECULE
PISM00798.1
   45    48     1     1     0
SMALL
GAST_HUCK


@<TRIPOS>ATOM
      1 C1          6.8896   15.6002  -52.7579 C.ar      1 <1>        -0.0355 
      2 C2          5.8873   14.6883  -53.1182 C.ar      1 <1>        -0.0401 
      3 C3          5.7826   13.3587  -52.3311 C.3       1 <1>         0.0022 
      4 C4          4.9429   12.2520  -53.0293 C.3       1 <1>        -0.0506 
      5 C5          5.0180   15.0318  -54.1632 C.ar      1 <1>        -0.0677 
      6 C6          7.1908   12.7970  -51.9786 C.3       1 <1>         0.0070 
      7 C7          8.0225   13.8885  -51.3620 C.2       1 <1>        -0.0208 
      8 C8          7.8984   15.1639  -51.7214 C.2       1 <1>         0.0134 
      9 C9          5.0986   16.2859  -54.7759 C.ar      1 <1>        -0.0766 
     10 C10         6.0556   17.2127  -54.3572 C.ar      1 <1>        -0.0773 
     11 C11         8.8815   15.9456  -50.9717 C.2       1 <1>         0.1023 
     12 C12         9.6400   14.9878  -50.1631 C.2       1 <1>         0.0350 
     13 C13         9.0668   13.5958  -50.3052 C.3       1 <1>         0.0288 
     14 O14         9.0652   17.1511  -50.9947 O.2       1 <1>        -0.4178 
     15 C15         8.4335   13.1252  -48.9701 C.3       1 <1>        -0.0419 
     16 C16        10.6976   15.3094  -49.4116 C.2       1 <1>         0.0856 
     17 O17        11.3327   14.3519  -48.7211 O.3       1 <1>        -0.2653 
     18 C18        12.4666   14.8196  -47.9685 C.3       1 <1>         0.2405 
     19 C19        13.5862   15.2576  -48.8864 C.2       1 <1>        -0.0006 
     20 C20        14.6404   14.4549  -48.7563 C.2       1 <1>         0.0293 
     21 C21        14.2162   13.4976  -47.7416 C.2       1 <1>         0.2496 
     22 O22        12.9956   13.6840  -47.2558 O.3       1 <1>        -0.2302 
     23 C23        15.9549   14.5227  -49.4845 C.3       1 <1>        -0.0323 
     24 O24        14.9316   12.5894  -47.3557 O.2       1 <1>        -0.3691 
     25 C25         6.9563   16.8662  -53.3478 C.ar      1 <1>        -0.0726 
     26 H1          5.2816   13.6147  -51.3815 H         1 <1>         0.0482 
     27 H2          5.3359   12.0576  -54.0391 H         1 <1>         0.0256 
     28 H3          3.8829   12.5399  -53.0994 H         1 <1>         0.0256 
     29 H4          4.9867   11.3142  -52.4539 H         1 <1>         0.0256 
     30 H5          4.2633   14.3429  -54.5201 H         1 <1>         0.0532 
     31 H6          7.0926   11.9389  -51.2973 H         1 <1>         0.0537 
     32 H7          7.7009   12.4579  -52.8935 H         1 <1>         0.0537 
     33 H8          4.4144   16.5429  -55.5791 H         1 <1>         0.0532 
     34 H9          6.1012   18.1959  -54.8156 H         1 <1>         0.0539 
     35 H10         9.8284   12.8914  -50.6770 H         1 <1>         0.0642 
     36 H11         7.6557   13.8358  -48.6500 H         1 <1>         0.0281 
     37 H12         9.1981   13.0635  -48.1814 H         1 <1>         0.0281 
     38 H13         7.9794   12.1295  -49.0782 H         1 <1>         0.0281 
     39 H14        10.9904   16.3622  -49.4048 H         1 <1>         0.1149 
     40 H15        12.1959   15.6005  -47.2375 H         1 <1>         0.1215 
     41 H16        13.5464   16.1072  -49.5668 H         1 <1>         0.0706 
     42 H17        16.5919   13.6699  -49.2054 H         1 <1>         0.0347 
     43 H18        16.4742   15.4569  -49.2238 H         1 <1>         0.0347 
     44 H19        15.7804   14.4972  -50.5705 H         1 <1>         0.0347 
     45 H20         7.7063   17.5829  -53.0329 H         1 <1>         0.0523 
@<TRIPOS>BOND
     1    8    1 1    
     2    1    2 ar   
     3    2    3 1    
     4    6    3 1    
     5    3    4 1    
     6    2    5 ar   
     7    6    7 1    
     8    7    8 2    
     9    5    9 ar   
    10    9   10 ar   
    11   10   25 ar   
    12    8   11 1    
    13   12   11 1    
    14   13   12 1    
    15    7   13 1    
    16   11   14 2    
    17   13   15 1    
    18   12   16 2    
    19   16   17 1    
    20   17   18 1    
    21   18   19 1    
    22   19   20 2    
    23   21   20 1    
    24   22   21 1    
    25   18   22 1    
    26   20   23 1    
    27   21   24 2    
    28    1   25 ar   
    29    3   26 1    
    30    4   27 1    
    31    4   28 1    
    32    4   29 1    
    33    5   30 1    
    34    6   31 1    
    35    6   32 1    
    36    9   33 1    
    37   10   34 1    
    38   13   35 1    
    39   15   36 1    
    40   15   37 1    
    41   15   38 1    
    42   16   39 1    
    43   18   40 1    
    44   19   41 1    
    45   23   42 1    
    46   23   43 1    
    47   23   44 1    
    48   25   45 1    
@<TRIPOS>SUBSTRUCTURE
     1 ****        6 TEMP              0 ****  ****    0 ROOT 
@<TRIPOS>NORMAL
@<TRIPOS>FF_PBC
FORCE_FIELD_SETUP_FEATURE Force Field Setup information
v1.0  0 0.000000 0.000000 0.000000 0.000000 0.000000 0.000000 NONE 0 0 0 0 1 0 0 0 0 0 0 0 0
