#	Name:			PISM00927
#	Creating user name:	baoopengkun
#	Creation time:		Wed Dec 12 21:30:58 2018

#	Modifying user name:	baoopengkun
#	Modification time:	Wed Dec 12 22:03:08 2018

@<TRIPOS>MOLECULE
PISM00927
   89    89     1     1     0
SMALL
GAST_HUCK


@<TRIPOS>ATOM
      1 C1          9.7115  -16.1898   -6.8949 C.3       1 <1>        -0.0609 
      2 C2          9.9647  -15.4038   -5.5772 C.3       1 <1>        -0.0462 
      3 C3         11.4825  -15.5514   -5.2269 C.3       1 <1>        -0.0609 
      4 C4          9.7142  -13.8831   -5.8284 C.3       1 <1>        -0.0609 
      5 C5          9.1535  -15.9696   -4.3516 C.3       1 <1>        -0.0733 
      6 C6          7.6144  -16.2878   -4.3743 C.3       1 <1>        -0.0537 
      7 C7          7.2462  -17.5385   -5.2418 C.3       1 <1>        -0.0901 
      8 C8          6.7621  -15.0975   -4.9105 C.3       1 <1>        -0.0901 
      9 C9          7.2489  -16.6122   -2.8907 C.ar      1 <1>        -0.0623 
     10 C10         7.5999  -17.8505   -2.3329 C.ar      1 <1>        -0.0461 
     11 C11         7.2204  -18.2013   -1.0345 C.ar      1 <1>         0.0013 
     12 C12         6.5165  -17.3060   -0.2289 C.ar      1 <1>         0.1291 
     13 C13         6.2021  -16.0461   -0.7499 C.ar      1 <1>         0.0013 
     14 C14         6.5794  -15.7062   -2.0533 C.ar      1 <1>        -0.0461 
     15 O15         6.1565  -17.7014    1.0677 O.3       1 <1>        -0.2908 
     16 C16         5.5802  -16.7818    2.0124 C.3       1 <1>         0.1029 
     17 C17         5.3868  -17.5114    3.3605 C.3       1 <1>         0.0771 
     18 O18         4.8434  -16.5654    4.3028 O.3       1 <1>        -0.3747 
     19 C19         4.6206  -17.1255    5.6131 C.3       1 <1>         0.0711 
     20 C20         4.0707  -16.0100    6.5297 C.3       1 <1>         0.0711 
     21 O21         3.8641  -16.5564    7.8484 O.3       1 <1>        -0.3752 
     22 C22         3.3724  -15.5850    8.7946 C.3       1 <1>         0.0711 
     23 C23         3.1930  -16.2755   10.1649 C.3       1 <1>         0.0711 
     24 O24         2.7257  -15.2926   11.1114 O.3       1 <1>        -0.3752 
     25 C25         2.5231  -15.8269   12.4357 C.3       1 <1>         0.0711 
     26 C26         2.0415  -14.6834   13.3563 C.3       1 <1>         0.0711 
     27 O27         1.8400  -15.2149   14.6820 O.3       1 <1>        -0.3752 
     28 C28         1.3982  -14.2229   15.6314 C.3       1 <1>         0.0711 
     29 C29         1.2129  -14.9052   17.0051 C.3       1 <1>         0.0711 
     30 O30         0.7821  -13.9095   17.9556 O.3       1 <1>        -0.3752 
     31 C31         0.5703  -14.4400   19.2801 C.3       1 <1>         0.0711 
     32 C32         0.1242  -13.2859   20.2052 C.3       1 <1>         0.0711 
     33 O33        -0.0944  -13.8178   21.5279 O.3       1 <1>        -0.3752 
     34 C34        -0.5099  -12.8192   22.4823 C.3       1 <1>         0.0711 
     35 C35        -0.7203  -13.5051   23.8506 C.3       1 <1>         0.0706 
     36 O36        -1.1329  -12.5070   24.8069 O.3       1 <1>        -0.3807 
     37 C37        -1.3611  -13.0425   26.1245 C.3       1 <1>         0.0365 
     38 H1         10.4491  -15.9082   -7.6620 H         1 <1>         0.0235 
     39 H2          9.7931  -17.2734   -6.7224 H         1 <1>         0.0235 
     40 H3          8.7212  -15.9601   -7.3079 H         1 <1>         0.0235 
     41 H4         11.7172  -15.0236   -4.2894 H         1 <1>         0.0235 
     42 H5         12.1248  -15.1339   -6.0178 H         1 <1>         0.0235 
     43 H6         11.7596  -16.6101   -5.1044 H         1 <1>         0.0235 
     44 H7          8.7117  -13.6752   -6.2176 H         1 <1>         0.0235 
     45 H8          9.8524  -13.3053   -4.9019 H         1 <1>         0.0235 
     46 H9         10.4235  -13.4962   -6.5763 H         1 <1>         0.0235 
     47 H10         9.3157  -15.2578   -3.5258 H         1 <1>         0.0159 
     48 H11         9.6381  -16.9109   -4.0504 H         1 <1>         0.0159 
     49 H12         6.2685  -17.9292   -4.9188 H         1 <1>         0.0117 
     50 H13         7.9855  -18.3469   -5.1577 H         1 <1>         0.0117 
     51 H14         7.1512  -17.3140   -6.3113 H         1 <1>         0.0117 
     52 H15         6.8357  -15.0016   -6.0019 H         1 <1>         0.0117 
     53 H16         7.0797  -14.1414   -4.4696 H         1 <1>         0.0117 
     54 H17         5.6979  -15.2652   -4.6828 H         1 <1>         0.0117 
     55 H18         8.1828  -18.5702   -2.8936 H         1 <1>         0.0823 
     56 H19         7.4748  -19.1795   -0.6393 H         1 <1>         0.0651 
     57 H20         5.6656  -15.3114   -0.1619 H         1 <1>         0.0651 
     58 H21         6.3350  -14.7062   -2.3861 H         1 <1>         0.0823 
     59 H22         4.5961  -16.4241    1.6690 H         1 <1>         0.0656 
     60 H23         6.2502  -15.9219    2.1757 H         1 <1>         0.0656 
     61 H24         6.3641  -17.8913    3.7012 H         1 <1>         0.0588 
     62 H25         4.7042  -18.3644    3.2130 H         1 <1>         0.0588 
     63 H26         5.5598  -17.5043    6.0486 H         1 <1>         0.0583 
     64 H27         3.8877  -17.9481    5.5745 H         1 <1>         0.0583 
     65 H28         3.1255  -15.6351    6.1037 H         1 <1>         0.0583 
     66 H29         4.8026  -15.1858    6.5529 H         1 <1>         0.0583 
     67 H30         2.3996  -15.1764    8.4755 H         1 <1>         0.0583 
     68 H31         4.0863  -14.7535    8.9136 H         1 <1>         0.0583 
     69 H32         4.1635  -16.6950   10.4770 H         1 <1>         0.0583 
     70 H33         2.4677  -17.0984   10.0544 H         1 <1>         0.0583 
     71 H34         3.4605  -16.2366   12.8464 H         1 <1>         0.0583 
     72 H35         1.7593  -16.6216   12.4296 H         1 <1>         0.0583 
     73 H36         1.1038  -14.2727   12.9475 H         1 <1>         0.0583 
     74 H37         2.8066  -13.8897   13.3592 H         1 <1>         0.0583 
     75 H38         0.4357  -13.7810   15.3255 H         1 <1>         0.0583 
     76 H39         2.1428  -13.4169   15.7370 H         1 <1>         0.0583 
     77 H40         2.1737  -15.3523   17.3087 H         1 <1>         0.0583 
     78 H41         0.4635  -15.7070   16.9019 H         1 <1>         0.0583 
     79 H42         1.4973  -14.8775   19.6858 H         1 <1>         0.0583 
     80 H43        -0.2163  -15.2124   19.2757 H         1 <1>         0.0583 
     81 H44        -0.8005  -12.8452   19.7978 H         1 <1>         0.0583 
     82 H45         0.9131  -12.5158   20.2120 H         1 <1>         0.0583 
     83 H46        -1.4580  -12.3474   22.1763 H         1 <1>         0.0583 
     84 H47         0.2577  -12.0361   22.5955 H         1 <1>         0.0583 
     85 H48         0.2270  -13.9786   24.1569 H         1 <1>         0.0582 
     86 H49        -1.4892  -14.2870   23.7378 H         1 <1>         0.0582 
     87 H50        -2.1656  -13.7943   26.1167 H         1 <1>         0.0524 
     88 H51        -1.6676  -12.2120   26.7774 H         1 <1>         0.0524 
     89 H52        -0.4445  -13.4907   26.5386 H         1 <1>         0.0524 
@<TRIPOS>BOND
     1    2    1 1    
     2    2    3 1    
     3    2    4 1    
     4    2    5 1    
     5    5    6 1    
     6    6    7 1    
     7    6    8 1    
     8    6    9 1    
     9    9   10 ar   
    10   10   11 ar   
    11   11   12 ar   
    12   12   13 ar   
    13   13   14 ar   
    14    9   14 ar   
    15   12   15 1    
    16   15   16 1    
    17   16   17 1    
    18   17   18 1    
    19   18   19 1    
    20   19   20 1    
    21   20   21 1    
    22   21   22 1    
    23   22   23 1    
    24   23   24 1    
    25   24   25 1    
    26   25   26 1    
    27   26   27 1    
    28   27   28 1    
    29   28   29 1    
    30   29   30 1    
    31   30   31 1    
    32   31   32 1    
    33   32   33 1    
    34   33   34 1    
    35   34   35 1    
    36   35   36 1    
    37   36   37 1    
    38    1   38 1    
    39    1   39 1    
    40    1   40 1    
    41    3   41 1    
    42    3   42 1    
    43    3   43 1    
    44    4   44 1    
    45    4   45 1    
    46    4   46 1    
    47    5   47 1    
    48    5   48 1    
    49    7   49 1    
    50    7   50 1    
    51    7   51 1    
    52    8   52 1    
    53    8   53 1    
    54    8   54 1    
    55   10   55 1    
    56   11   56 1    
    57   13   57 1    
    58   14   58 1    
    59   16   59 1    
    60   16   60 1    
    61   17   61 1    
    62   17   62 1    
    63   19   63 1    
    64   19   64 1    
    65   20   65 1    
    66   20   66 1    
    67   22   67 1    
    68   22   68 1    
    69   23   69 1    
    70   23   70 1    
    71   25   71 1    
    72   25   72 1    
    73   26   73 1    
    74   26   74 1    
    75   28   75 1    
    76   28   76 1    
    77   29   77 1    
    78   29   78 1    
    79   31   79 1    
    80   31   80 1    
    81   32   81 1    
    82   32   82 1    
    83   34   83 1    
    84   34   84 1    
    85   35   85 1    
    86   35   86 1    
    87   37   87 1    
    88   37   88 1    
    89   37   89 1    
@<TRIPOS>SUBSTRUCTURE
     1 ****        2 TEMP              0 ****  ****    0 ROOT 
@<TRIPOS>NORMAL
@<TRIPOS>FF_PBC
FORCE_FIELD_SETUP_FEATURE Force Field Setup information
v1.0  0 0.000000 0.000000 0.000000 0.000000 0.000000 0.000000 NONE 0 0 0 0 1 0 0 0 0 0 0 0 0
