#	Name:			PISM00051
#	Creating user name:	baoopengkun
#	Creation time:		Thu Dec 27 16:40:24 2018

#	Modifying user name:	baoopengkun
#	Modification time:	Thu Dec 27 16:41:32 2018

@<TRIPOS>MOLECULE
PISM00051
   22    23     1     1     0
SMALL
GAST_HUCK


@<TRIPOS>ATOM
      1 O1         -1.3443    1.9513  -18.5723 O.3       1 <1>        -0.2893 
      2 C2         -2.7095    1.4993  -18.3004 C.3       1 <1>         0.1887 
      3 O3         -3.0964    1.6663  -16.8987 O.3       1 <1>        -0.2859 
      4 C4         -2.1940    2.6540  -16.5638 C.ar      1 <1>         0.1304 
      5 C5         -1.2052    2.8123  -17.5038 C.ar      1 <1>         0.1290 
      6 C6         -2.2364    3.4314  -15.4086 C.ar      1 <1>        -0.0339 
      7 C7         -1.2304    4.3940  -15.2481 C.ar      1 <1>        -0.0672 
      8 C8         -0.1949    4.5397  -16.1895 C.ar      1 <1>        -0.0328 
      9 C9         -0.1856    3.7497  -17.3491 C.ar      1 <1>        -0.0283 
     10 C10         0.9312    5.5386  -16.0068 C.2       1 <1>        -0.0475 
     11 C11         1.3609    5.9862  -14.8183 C.2       1 <1>         0.0160 
     12 C12         2.4589    6.9744  -14.6896 C.2       1 <1>         0.2416 
     13 O13         3.0064    7.4160  -15.6852 O.2       1 <1>        -0.3671 
     14 O14         2.8802    7.4092  -13.4978 O.3       1 <1>        -0.2972 
     15 H1         -2.8539    0.4585  -18.6287 H         1 <1>         0.0977 
     16 H2         -3.3842    2.1369  -18.8982 H         1 <1>         0.0977 
     17 H3         -3.0206    3.2930  -14.6719 H         1 <1>         0.0531 
     18 H4         -1.2787    5.0368  -14.3770 H         1 <1>         0.0547 
     19 H5          0.5838    3.8499  -18.1068 H         1 <1>         0.0541 
     20 H6          1.4228    5.9042  -16.9093 H         1 <1>         0.0733 
     21 H7          0.9073    5.6176  -13.9013 H         1 <1>         0.0617 
     22 H8          2.4216    7.0350  -12.7567 H         1 <1>         0.2512 
@<TRIPOS>BOND
     1    2    1 1    
     2    2    3 1    
     3    3    4 1    
     4    4    5 ar   
     5    1    5 1    
     6    4    6 ar   
     7    6    7 ar   
     8    7    8 ar   
     9    8    9 ar   
    10    5    9 ar   
    11    8   10 1    
    12   10   11 2    
    13   11   12 1    
    14   12   13 2    
    15   12   14 1    
    16    2   15 1    
    17    2   16 1    
    18    6   17 1    
    19    7   18 1    
    20    9   19 1    
    21   10   20 1    
    22   11   21 1    
    23   14   22 1    
@<TRIPOS>SUBSTRUCTURE
     1 ****        2 TEMP              0 ****  ****    0 ROOT 
@<TRIPOS>NORMAL
@<TRIPOS>FF_PBC
FORCE_FIELD_SETUP_FEATURE Force Field Setup information
v1.0  0 0.000000 0.000000 0.000000 0.000000 0.000000 0.000000 NONE 0 0 0 0 1 0 0 0 0 0 0 0 0
