#	Name:			PISM00970
#	Creating user name:	baoopengkun
#	Creation time:		Thu Dec 13 11:29:41 2018

#	Modifying user name:	baoopengkun
#	Modification time:	Thu Dec 13 11:31:12 2018

@<TRIPOS>MOLECULE
PISM00970
   28    29     1     1     0
SMALL
GAST_HUCK


@<TRIPOS>ATOM
      1 C1         -1.9088   13.4172   -2.2044 C.ar      1 <1>        -0.0429 
      2 C2         -1.8748   13.8259   -0.8664 C.ar      1 <1>        -0.0603 
      3 C3         -0.6619   14.1692   -0.2622 C.ar      1 <1>        -0.0686 
      4 C4          0.5272   14.1011   -0.9932 C.ar      1 <1>        -0.0687 
      5 C5          0.4999   13.6901   -2.3287 C.ar      1 <1>        -0.0686 
      6 C6         -0.7146   13.3506   -2.9320 C.ar      1 <1>        -0.0603 
      7 C7         -3.2489   13.0500   -2.8576 C.3       1 <1>        -0.0163 
      8 C8         -4.0598   14.3266   -3.2033 C.3       1 <1>        -0.0098 
      9 C9         -3.2884   15.2192   -4.2101 C.3       1 <1>         0.1098 
     10 O10        -3.2624   14.6393   -5.5226 O.3       1 <1>        -0.2703 
     11 C11        -3.8804   15.6704   -6.0573 C.2       1 <1>         0.2398 
     12 C12        -4.0348   16.4661   -4.8013 C.3       1 <1>         0.0879 
     13 C13        -5.5090   16.7102   -4.3917 C.3       1 <1>        -0.0412 
     14 O14        -4.2087   15.8908   -7.2102 O.2       1 <1>        -0.3700 
     15 H1         -2.7929   13.8785   -0.2900 H         1 <1>         0.0557 
     16 H2         -0.6431   14.4885    0.7753 H         1 <1>         0.0599 
     17 H3          1.4701   14.3664   -0.5247 H         1 <1>         0.0559 
     18 H4          1.4230   13.6347   -2.8979 H         1 <1>         0.0599 
     19 H5         -0.7229   13.0371   -3.9711 H         1 <1>         0.0557 
     20 H6         -3.8217   12.4213   -2.1565 H         1 <1>         0.0427 
     21 H7         -3.0851   12.4602   -3.7741 H         1 <1>         0.0427 
     22 H8         -4.2579   14.9050   -2.2871 H         1 <1>         0.0317 
     23 H9         -5.0207   14.0057   -3.6336 H         1 <1>         0.0317 
     24 H10        -2.2750   15.4884   -3.8657 H         1 <1>         0.0680 
     25 H11        -3.4167   17.3781   -4.8239 H         1 <1>         0.0581 
     26 H12        -5.9071   17.5506   -4.9807 H         1 <1>         0.0259 
     27 H13        -5.5597   16.9728   -3.3244 H         1 <1>         0.0259 
     28 H14        -6.1462   15.8346   -4.5828 H         1 <1>         0.0259 
@<TRIPOS>BOND
     1    2    1 ar   
     2    2    3 ar   
     3    3    4 ar   
     4    4    5 ar   
     5    5    6 ar   
     6    1    6 ar   
     7    1    7 1    
     8    7    8 1    
     9    8    9 1    
    10    9   10 1    
    11   10   11 1    
    12   11   12 1    
    13    9   12 1    
    14   12   13 1    
    15   11   14 2    
    16    2   15 1    
    17    3   16 1    
    18    4   17 1    
    19    5   18 1    
    20    6   19 1    
    21    7   20 1    
    22    7   21 1    
    23    8   22 1    
    24    8   23 1    
    25    9   24 1    
    26   12   25 1    
    27   13   26 1    
    28   13   27 1    
    29   13   28 1    
@<TRIPOS>SUBSTRUCTURE
     1 ****        2 TEMP              0 ****  ****    0 ROOT 
@<TRIPOS>NORMAL
@<TRIPOS>FF_PBC
FORCE_FIELD_SETUP_FEATURE Force Field Setup information
v1.0  0 0.000000 0.000000 0.000000 0.000000 0.000000 0.000000 NONE 0 0 0 0 1 0 0 0 0 0 0 0 0
