#	Name:			PISM00947
#	Creating user name:	baoopengkun
#	Creation time:		Wed Dec 12 23:27:48 2018

#	Modifying user name:	baoopengkun
#	Modification time:	Wed Dec 12 23:33:11 2018

@<TRIPOS>MOLECULE
PISM00947
   30    31     1     1     0
SMALL
GAST_HUCK


@<TRIPOS>ATOM
      1 O1          3.0393   -3.3627   12.3872 O.2       1 <1>        -0.3645 
      2 C2          2.6027   -3.7987   11.3335 C.2       1 <1>         0.2530 
      3 O3          3.1296   -3.3927   10.1744 O.3       1 <1>        -0.2955 
      4 C4          1.4623   -4.7955   11.3375 C.ar      1 <1>         0.0831 
      5 C5          0.8561   -5.1479   12.5493 C.ar      1 <1>        -0.0508 
      6 C6         -0.2082   -6.0528   12.5726 C.ar      1 <1>        -0.0680 
      7 C7         -0.6847   -6.5934   11.3764 C.ar      1 <1>        -0.0676 
      8 C8         -0.0869   -6.2363   10.1649 C.ar      1 <1>        -0.0334 
      9 C9          1.0124   -5.3683   10.1390 C.ar      1 <1>         0.0809 
     10 N10         1.6297   -5.0807    8.9644 N.pl3     1 <1>        -0.2652 
     11 C11         1.7533   -5.9915    7.9670 C.ar      1 <1>         0.0892 
     12 C12         1.9784   -7.3440    8.2499 C.ar      1 <1>        -0.0097 
     13 C13         2.0681   -8.2757    7.2118 C.ar      1 <1>        -0.0404 
     14 C14         1.9657   -7.8566    5.8825 C.ar      1 <1>        -0.0422 
     15 C15         1.7760   -6.5019    5.5874 C.ar      1 <1>         0.0371 
     16 C16         1.6665   -5.5790    6.6328 C.ar      1 <1>        -0.0102 
     17 F17         2.5672   -4.9800    3.9668 F         1 <1>        -0.2207 
     18 C18         1.6827   -5.9980    4.1427 C.3       1 <1>         0.3736 
     19 F19         0.4242   -5.5351    3.9183 F         1 <1>        -0.2207 
     20 F20         1.9606   -6.9820    3.2454 F         1 <1>        -0.2207 
     21 H1          3.8387   -2.7728   10.3150 H         1 <1>         0.2519 
     22 H2          1.2096   -4.7193   13.4820 H         1 <1>         0.0640 
     23 H3         -0.6651   -6.3332   13.5171 H         1 <1>         0.0527 
     24 H4         -1.5192   -7.2884   11.3886 H         1 <1>         0.0623 
     25 H5         -0.4911   -6.6371    9.2408 H         1 <1>         0.0543 
     26 H6          2.0393   -4.1400    8.8320 H         1 <1>         0.2109 
     27 H7          2.0915   -7.6775    9.2765 H         1 <1>         0.0784 
     28 H8          2.2197   -9.3271    7.4385 H         1 <1>         0.0671 
     29 H9          2.0348   -8.5898    5.0850 H         1 <1>         0.0764 
     30 H10         1.5076   -4.5302    6.4037 H         1 <1>         0.0745 
@<TRIPOS>BOND
     1    2    1 2    
     2    2    3 1    
     3    2    4 1    
     4    4    5 ar   
     5    5    6 ar   
     6    6    7 ar   
     7    7    8 ar   
     8    8    9 ar   
     9    4    9 ar   
    10    9   10 1    
    11   10   11 1    
    12   11   12 ar   
    13   12   13 ar   
    14   13   14 ar   
    15   14   15 ar   
    16   15   16 ar   
    17   11   16 ar   
    18   18   17 1    
    19   15   18 1    
    20   18   19 1    
    21   18   20 1    
    22    3   21 1    
    23    5   22 1    
    24    6   23 1    
    25    7   24 1    
    26    8   25 1    
    27   10   26 1    
    28   12   27 1    
    29   13   28 1    
    30   14   29 1    
    31   16   30 1    
@<TRIPOS>SUBSTRUCTURE
     1 ****        2 TEMP              0 ****  ****    0 ROOT 
@<TRIPOS>NORMAL
@<TRIPOS>FF_PBC
FORCE_FIELD_SETUP_FEATURE Force Field Setup information
v1.0  0 0.000000 0.000000 0.000000 0.000000 0.000000 0.000000 NONE 0 0 0 0 1 0 0 0 0 0 0 0 0
