#	Name:			PISM00830
#	Creating user name:	baoopengkun
#	Creation time:		Sat Dec 15 02:59:32 2018

#	Modifying user name:	baoopengkun
#	Modification time:	Sat Dec 15 03:02:03 2018

@<TRIPOS>MOLECULE
PISM00830
   37    40     1     1     0
SMALL
GAST_HUCK


@<TRIPOS>ATOM
      1 C1          4.0497   11.1711  -45.0749 C.ar      1 <1>        -0.0699 
      2 C2          4.3750    9.8212  -44.8895 C.ar      1 <1>        -0.0760 
      3 C3          4.8625    9.3552  -43.6578 C.ar      1 <1>        -0.0739 
      4 C4          5.0427   10.2195  -42.5688 C.ar      1 <1>        -0.0409 
      5 C5          4.7192   11.5636  -42.7576 C.ar      1 <1>         0.0671 
      6 C6          4.2375   12.0125  -43.9804 C.ar      1 <1>        -0.0090 
      7 C7          4.0367   13.4799  -43.7141 C.2       1 <1>        -0.0174 
      8 C8          4.3995   13.6878  -42.4569 C.2       1 <1>         0.1127 
      9 N9          4.8030   12.5893  -41.8763 N.pl3     1 <1>        -0.2655 
     10 C10         4.2180   15.1027  -42.1607 C.2       1 <1>         0.1515 
     11 C11         3.6124   15.7846  -43.3642 C.3       1 <1>         0.0717 
     12 C12         3.5637   14.6802  -44.4796 C.3       1 <1>        -0.0063 
     13 O13         4.5164   15.6700  -41.1218 O.2       1 <1>        -0.3868 
     14 C14         5.2686   12.4855  -40.4987 C.3       1 <1>         0.0372 
     15 C15         4.4806   17.0089  -43.7399 C.3       1 <1>         0.0873 
     16 N16         4.4472   17.9903  -42.6664 N.am      1 <1>        -0.2729 
     17 C17         3.9253   19.1623  -43.0477 C.2       1 <1>         0.1891 
     18 C18         3.5543   19.0566  -44.4605 C.2       1 <1>         0.0138 
     19 C19         3.8735   17.8218  -44.8586 C.2       1 <1>        -0.0409 
     20 C20         2.9379   20.1385  -45.3050 C.3       1 <1>        -0.0335 
     21 O21         3.7748   20.1519  -42.3527 O.2       1 <1>        -0.3961 
     22 H1          3.6708   11.5489  -46.0183 H         1 <1>         0.0565 
     23 H2          4.2475    9.1252  -45.7129 H         1 <1>         0.0518 
     24 H3          5.1054    8.3029  -43.5451 H         1 <1>         0.0554 
     25 H4          5.4185    9.8569  -41.6186 H         1 <1>         0.0547 
     26 H5          2.5992   16.1203  -43.0890 H         1 <1>         0.0582 
     27 H6          4.2583   14.8734  -45.3112 H         1 <1>         0.0412 
     28 H7          2.5474   14.5194  -44.8724 H         1 <1>         0.0412 
     29 H8          4.6321   11.7766  -39.9479 H         1 <1>         0.0555 
     30 H9          5.2354   13.4571  -39.9822 H         1 <1>         0.0555 
     31 H10         6.3071   12.1214  -40.4899 H         1 <1>         0.0555 
     32 H11         5.5181   16.7209  -43.9780 H         1 <1>         0.0757 
     33 H12         4.7662   17.7864  -41.7371 H         1 <1>         0.1870 
     34 H13         3.7143   17.4497  -45.8701 H         1 <1>         0.0662 
     35 H14         3.4585   20.2065  -46.2719 H         1 <1>         0.0348 
     36 H15         3.0108   21.1100  -44.7934 H         1 <1>         0.0348 
     37 H16         1.8773   19.9061  -45.4811 H         1 <1>         0.0348 
@<TRIPOS>BOND
     1    2    1 ar   
     2    2    3 ar   
     3    3    4 ar   
     4    4    5 ar   
     5    5    6 ar   
     6    1    6 ar   
     7    6    7 1    
     8    7    8 2    
     9    8    9 1    
    10    5    9 1    
    11    8   10 1    
    12   10   11 1    
    13   11   12 1    
    14    7   12 1    
    15   10   13 2    
    16    9   14 1    
    17   11   15 1    
    18   15   16 1    
    19   16   17 am   
    20   17   18 1    
    21   18   19 2    
    22   15   19 1    
    23   18   20 1    
    24   17   21 2    
    25    1   22 1    
    26    2   23 1    
    27    3   24 1    
    28    4   25 1    
    29   11   26 1    
    30   12   27 1    
    31   12   28 1    
    32   14   29 1    
    33   14   30 1    
    34   14   31 1    
    35   15   32 1    
    36   16   33 1    
    37   19   34 1    
    38   20   35 1    
    39   20   36 1    
    40   20   37 1    
@<TRIPOS>SUBSTRUCTURE
     1 ****        2 TEMP              0 ****  ****    0 ROOT 
@<TRIPOS>NORMAL
@<TRIPOS>FF_PBC
FORCE_FIELD_SETUP_FEATURE Force Field Setup information
v1.0  0 0.000000 0.000000 0.000000 0.000000 0.000000 0.000000 NONE 0 0 0 0 1 0 0 0 0 0 0 0 0
