#	Name:			PISM00998
#	Creating user name:	baoopengkun
#	Creation time:		Fri Jan 11 22:05:04 2019

#	Modifying user name:	baoopengkun
#	Modification time:	Fri Jan 11 22:42:39 2019

@<TRIPOS>MOLECULE
PISM00998
   41    43     1     1     0
SMALL
GAST_HUCK


@<TRIPOS>ATOM
      1 C1         13.8628    7.9703  -15.1347 C.3       1 <1>        -0.0405 
      2 H1         13.7765    9.0323  -15.4098 H         1 <1>         0.0358 
      3 C3         23.7888    8.0954   -4.8125 C.2       1 <1>         0.0412 
      4 C4         24.0811    9.0442   -5.7060 C.2       1 <1>         0.0412 
      5 H2         12.8842    7.6118  -14.7828 H         1 <1>         0.0358 
      6 C6         16.9873    4.8726  -12.6018 C.3       1 <1>        -0.0376 
      7 C7         22.5294    7.4884   -5.2636 C.2       1 <1>         0.2576 
      8 O8         21.9632    6.5846   -4.6729 O.2       1 <1>        -0.3492 
      9 N9         22.1571    8.0837   -6.3576 N.pl3     1 <1>        -0.1377 
     10 C10        23.0008    9.0111   -6.7006 C.2       1 <1>         0.2576 
     11 O11        22.9516    9.7450   -7.6730 O.2       1 <1>        -0.3492 
     12 C12        21.0348    7.7763   -7.0536 C.ar      1 <1>         0.0861 
     13 C13        20.6955    6.4406   -7.2998 C.ar      1 <1>        -0.0343 
     14 C14        19.5374    6.1224   -8.0151 C.ar      1 <1>        -0.0441 
     15 C15        18.7126    7.1396   -8.5029 C.ar      1 <1>         0.1020 
     16 C16        19.0519    8.4746   -8.2700 C.ar      1 <1>        -0.0441 
     17 C17        20.1999    8.7905   -7.5375 C.ar      1 <1>        -0.0343 
     18 S18        17.2593    6.7553   -9.4501 S.o2      1 <1>         0.0820 
     19 O19        17.0228    5.3264   -9.4062 O.2       1 <1>        -0.1466 
     20 O20        16.2026    7.6708   -9.0692 O.2       1 <1>        -0.1466 
     21 N21        17.7716    7.1562  -10.9970 N.am      1 <1>        -0.1953 
     22 C22        16.8047    7.3483  -12.0134 C.ar      1 <1>         0.0576 
     23 C23        16.3979    6.2735  -12.8121 C.ar      1 <1>        -0.0343 
     24 C24        15.4395    6.4875  -13.8094 C.ar      1 <1>        -0.0740 
     25 C25        14.8960    7.7596  -14.0212 C.ar      1 <1>        -0.0693 
     26 C26        15.3042    8.8249  -13.2112 C.ar      1 <1>        -0.0830 
     27 C27        16.2558    8.6175  -12.2090 C.ar      1 <1>        -0.0580 
     28 H3         14.1519    7.4032  -16.0325 H         1 <1>         0.0358 
     29 H4         24.3565    7.8170   -3.9259 H         1 <1>         0.0816 
     30 H5         24.9405    9.7128   -5.7112 H         1 <1>         0.0816 
     31 H6         16.3572    4.3307  -11.8810 H         1 <1>         0.0357 
     32 H7         18.0144    4.9226  -12.2120 H         1 <1>         0.0357 
     33 H8         17.0092    4.3119  -13.5486 H         1 <1>         0.0357 
     34 H9         21.3341    5.6391   -6.9428 H         1 <1>         0.0539 
     35 H10        19.2805    5.0835   -8.1932 H         1 <1>         0.0607 
     36 H11        18.4195    9.2660   -8.6596 H         1 <1>         0.0607 
     37 H12        20.4341    9.8317   -7.3421 H         1 <1>         0.0539 
     38 H13        18.7449    7.2118  -11.2169 H         1 <1>         0.2109 
     39 H14        15.1103    5.6573  -14.4257 H         1 <1>         0.0451 
     40 H15        14.8857    9.8159  -13.3535 H         1 <1>         0.0457 
     41 H16        16.5723    9.4412  -11.5776 H         1 <1>         0.0443 
@<TRIPOS>BOND
     1   25    1 1    
     2    1    2 1    
     3    4    3 2    
     4    1    5 1    
     5   23    6 1    
     6    1   28 1    
     7    3    7 1    
     8    7    8 2    
     9    9    7 1    
    10   10    9 1    
    11   10   11 2    
    12    4   10 1    
    13    9   12 1    
    14   12   13 ar   
    15   13   14 ar   
    16   14   15 ar   
    17   16   15 ar   
    18   17   16 ar   
    19   12   17 ar   
    20   15   18 1    
    21   18   19 2    
    22   18   20 2    
    23   18   21 1    
    24   21   22 1    
    25   22   23 ar   
    26   23   24 ar   
    27   24   25 ar   
    28   26   25 ar   
    29   27   26 ar   
    30   22   27 ar   
    31    3   29 1    
    32    4   30 1    
    33    6   31 1    
    34    6   32 1    
    35    6   33 1    
    36   13   34 1    
    37   14   35 1    
    38   16   36 1    
    39   17   37 1    
    40   21   38 1    
    41   24   39 1    
    42   26   40 1    
    43   27   41 1    
@<TRIPOS>SUBSTRUCTURE
     1 ****        4 TEMP              0 ****  ****    0 ROOT 
@<TRIPOS>NORMAL
@<TRIPOS>FF_PBC
FORCE_FIELD_SETUP_FEATURE Force Field Setup information
v1.0  0 0.000000 0.000000 0.000000 0.000000 0.000000 0.000000 NONE 0 0 0 0 1 0 0 0 0 0 0 0 0
