#	Name:			PISM00394
#	Creating user name:	malab
#	Creation time:		Tue Apr 02 19:04:19 2019

#	Modifying user name:	malab
#	Modification time:	Tue Apr 02 19:04:31 2019

@<TRIPOS>MOLECULE
PISM00394
   38    39     1     1     0
SMALL
GAST_HUCK


@<TRIPOS>ATOM
      1 N1         -2.0007    6.5465   -4.6664 N.2       1 <1>        -0.1722 
      2 C2         -1.9048    7.1489   -5.7914 C.2       1 <1>         0.0658 
      3 N3         -0.5190    7.4986   -5.7486 N.2       1 <1>        -0.2821 
      4 C4          0.0130    7.0806   -4.6957 C.2       1 <1>         0.1498 
      5 N5         -0.8468    6.4552   -3.9348 N.pl3     1 <1>        -0.1216 
      6 C6         -0.6410    5.8637   -2.7751 C.2       1 <1>         0.1375 
      7 C7         -1.8411    5.1387   -2.1464 C.3       1 <1>         0.1336 
      8 C8         -2.4202    5.5945   -0.7450 C.3       1 <1>         0.0048 
      9 C9         -2.1514    7.1003   -0.4568 C.3       1 <1>        -0.0551 
     10 C10        -1.8527    4.7504    0.4438 C.3       1 <1>        -0.0551 
     11 C11        -3.9690    5.3883   -0.7024 C.3       1 <1>        -0.0551 
     12 O12        -2.9293    5.0230   -3.0839 O.3       1 <1>        -0.3711 
     13 C13         0.5769    5.8896   -2.2039 C.2       1 <1>        -0.0332 
     14 C14         1.0214    5.2033   -0.9344 C.ar      1 <1>        -0.0506 
     15 C15         1.5427    5.9860    0.0996 C.ar      1 <1>        -0.0674 
     16 C16         1.9337    5.3905    1.3035 C.ar      1 <1>        -0.0570 
     17 C17         1.8069    4.0106    1.4641 C.ar      1 <1>         0.0313 
     18 C18         1.3112    3.2212    0.4249 C.ar      1 <1>        -0.0570 
     19 C19         0.9417    3.8124   -0.7870 C.ar      1 <1>        -0.0674 
     20 Cl20        2.2670    3.2663    2.9838 Cl        1 <1>        -0.0782 
     21 H1         -2.6602    7.3336   -6.5574 H         1 <1>         0.0882 
     22 H2          1.0719    7.2863   -4.5723 H         1 <1>         0.1391 
     23 H3         -1.5776    4.0749   -2.0765 H         1 <1>         0.0853 
     24 H4         -2.5947    7.7348   -1.2377 H         1 <1>         0.0238 
     25 H5         -1.0763    7.3163   -0.3994 H         1 <1>         0.0238 
     26 H6         -2.6010    7.3853    0.5076 H         1 <1>         0.0238 
     27 H7         -0.8257    5.0241    0.6796 H         1 <1>         0.0238 
     28 H8         -1.8915    3.6714    0.2278 H         1 <1>         0.0238 
     29 H9         -2.4082    4.9243    1.3777 H         1 <1>         0.0238 
     30 H10        -4.3836    5.5935    0.2977 H         1 <1>         0.0238 
     31 H11        -4.4873    6.0656   -1.3977 H         1 <1>         0.0238 
     32 H12        -4.2229    4.3499   -0.9669 H         1 <1>         0.0238 
     33 H13        -3.2053    5.8711   -3.4221 H         1 <1>         0.2142 
     34 H14         1.4222    6.4356   -2.6078 H         1 <1>         0.0312 
     35 H15         1.6353    7.0628   -0.0081 H         1 <1>         0.0542 
     36 H16         2.3196    6.0009    2.1117 H         1 <1>         0.0600 
     37 H17         1.2064    2.1469    0.5638 H         1 <1>         0.0600 
     38 H18         0.5933    3.1870   -1.6015 H         1 <1>         0.0542 
@<TRIPOS>BOND
     1    2    1 2    
     2    2    3 1    
     3    3    4 2    
     4    4    5 1    
     5    1    5 1    
     6    5    6 1    
     7    6    7 1    
     8    7    8 1    
     9    8    9 1    
    10    8   10 1    
    11    8   11 1    
    12    7   12 1    
    13    6   13 2    
    14   13   14 1    
    15   14   15 ar   
    16   15   16 ar   
    17   16   17 ar   
    18   17   18 ar   
    19   18   19 ar   
    20   14   19 ar   
    21   17   20 1    
    22    2   21 1    
    23    4   22 1    
    24    7   23 1    
    25    9   24 1    
    26    9   25 1    
    27    9   26 1    
    28   10   27 1    
    29   10   28 1    
    30   10   29 1    
    31   11   30 1    
    32   11   31 1    
    33   11   32 1    
    34   12   33 1    
    35   13   34 1    
    36   15   35 1    
    37   16   36 1    
    38   18   37 1    
    39   19   38 1    
@<TRIPOS>SUBSTRUCTURE
     1 ****        2 TEMP              0 ****  ****    0 ROOT 
@<TRIPOS>NORMAL
@<TRIPOS>FF_PBC
FORCE_FIELD_SETUP_FEATURE Force Field Setup information
v1.0  0 0.000000 0.000000 0.000000 0.000000 0.000000 0.000000 NONE 0 0 0 0 1 0 0 0 0 0 0 0 0
