#	Name:			PISM00106
#	Creating user name:	baoopengkun
#	Creation time:		Sun Dec 16 14:51:44 2018

#	Modifying user name:	baoopengkun
#	Modification time:	Sun Dec 16 14:53:09 2018

@<TRIPOS>MOLECULE
PISM00106
   20    20     1     1     0
SMALL
GAST_HUCK


@<TRIPOS>ATOM
      1 C1         -5.6633   26.1689   -5.4864 C.ar      1 <1>         0.1353 
      2 C2         -5.2932   24.8358   -5.7011 C.ar      1 <1>         0.1325 
      3 C3         -3.9732   24.5209   -6.0344 C.ar      1 <1>        -0.0147 
      4 C4         -2.9991   25.5231   -6.1171 C.ar      1 <1>         0.0001 
      5 C5         -3.3812   26.8562   -5.9325 C.ar      1 <1>        -0.0519 
      6 C6         -4.7040   27.1806   -5.6167 C.ar      1 <1>        -0.0222 
      7 O7         -6.9905   26.4582   -5.1480 O.3       1 <1>        -0.3242 
      8 O8         -6.2353   23.8097   -5.5897 O.3       1 <1>        -0.3330 
      9 C9         -1.5446   25.2161   -6.4109 C.2       1 <1>         0.0156 
     10 C10        -0.8807   24.1663   -5.9087 C.2       1 <1>         0.1974 
     11 C11        -1.4949   23.2339   -4.9995 C.1       1 <1>         0.0938 
     12 N12        -1.9959   22.4882   -4.2693 N.1       1 <1>        -0.3554 
     13 C13         0.4987   23.9565   -6.2667 C.1       1 <1>         0.0938 
     14 N14         1.6071   23.7944   -6.5588 N.1       1 <1>        -0.3554 
     15 H1         -3.7264   23.4854   -6.2383 H         1 <1>         0.0616 
     16 H2         -2.6463   27.6499   -6.0293 H         1 <1>         0.0638 
     17 H3         -4.9769   28.2213   -5.4732 H         1 <1>         0.0564 
     18 H4         -7.1677   27.3795   -4.9918 H         1 <1>         0.2518 
     19 H5         -7.0938   24.1343   -5.3349 H         1 <1>         0.2447 
     20 H6         -1.0110   25.9069   -7.0652 H         1 <1>         0.1101 
@<TRIPOS>BOND
     1    2    1 ar   
     2    2    3 ar   
     3    3    4 ar   
     4    4    5 ar   
     5    5    6 ar   
     6    1    6 ar   
     7    1    7 1    
     8    2    8 1    
     9    4    9 1    
    10    9   10 2    
    11   10   11 1    
    12   11   12 3    
    13   10   13 1    
    14   13   14 3    
    15    3   15 1    
    16    5   16 1    
    17    6   17 1    
    18    7   18 1    
    19    8   19 1    
    20    9   20 1    
@<TRIPOS>SUBSTRUCTURE
     1 ****        2 TEMP              0 ****  ****    0 ROOT 
@<TRIPOS>NORMAL
@<TRIPOS>FF_PBC
FORCE_FIELD_SETUP_FEATURE Force Field Setup information
v1.0  0 0.000000 0.000000 0.000000 0.000000 0.000000 0.000000 NONE 0 0 0 0 1 0 0 0 0 0 0 0 0
