#	Name:			PISM00672
#	Creating user name:	baoopengkun
#	Creation time:		Mon Dec 10 11:32:58 2018

#	Modifying user name:	baoopengkun
#	Modification time:	Mon Dec 10 11:33:20 2018

@<TRIPOS>MOLECULE
PISM00672
   35    36     1     2     0
SMALL
GAST_HUCK


@<TRIPOS>ATOM
      1 Cl1        -3.3513   26.0758   -8.1235 Cl        1 PHENYL     -0.0773 
      2 C          -3.8759   27.0489   -9.4818 C.ar      1 PHENYL      0.0333 
      3 C          -5.2389   27.2456   -9.7167 C.ar      1 PHENYL     -0.0517 
      4 C          -5.6526   28.0407  -10.7892 C.ar      1 PHENYL     -0.0188 
      5 C          -4.7103   28.6482  -11.6243 C.ar      1 PHENYL      0.1685 
      6 C          -3.3447   28.4112  -11.4159 C.ar      1 PHENYL      0.0818 
      7 C          -2.9321   27.6288  -10.3334 C.ar      1 PHENYL     -0.0378 
      8 Cl8        -2.1318   29.0744  -12.4948 Cl        1 PHENYL     -0.0740 
      9 O9         -5.1533   29.4761  -12.6592 O.3       1 PHENYL     -0.1507 
     10 C10        -4.5344   30.6253  -12.9902 C.2       1 PHENYL      0.3341 
     11 C11        -4.4278   30.8690  -14.3102 C.2       1 PHENYL     -0.0326 
     12 C12        -3.8335   32.0084  -15.1339 C.3       1 PHENYL     -0.1005 
     13 C13        -4.1201   31.6968  -16.6409 C.3       1 PHENYL     -0.1182 
     14 C14        -4.5271   33.3719  -14.8359 C.3       1 PHENYL     -0.1182 
     15 C15        -2.2834   32.0714  -14.9890 C.3       1 PHENYL     -0.1182 
     16 N16        -4.0761   31.4232  -12.0500 N.pl3     1 PHENYL     -0.0432 
     17 C17        -4.2716   31.3237  -10.7614 C.2       1 PHENYL      0.1747 
     18 N18        -3.7017   32.2460  -10.1322 N.2       1 PHENYL     -0.2690 
     19 C19        -3.0290   33.1296  -11.0338 C.2       1 PHENYL      0.0766 
     20 N20        -3.3234   32.5579  -12.1389 N.2       1 PHENYL     -0.1504 
     21 H1         -5.9730   26.7813   -9.0657 H         1 PHENYL      0.0607 
     22 H2         -6.7110   28.1920  -10.9764 H         1 PHENYL      0.0585 
     23 H3         -1.8742   27.4686  -10.1539 H         1 PHENYL      0.0612 
     24 H4         -4.8674   30.0664  -14.9060 H         1 PHENYL      0.0410 
     25 H5         -3.7175   32.4846  -17.2966 H         1 PHENYL      0.0033 
     26 H6         -5.2033   31.6257  -16.8288 H         1 PHENYL      0.0033 
     27 H7         -3.6580   30.7437  -16.9436 H         1 PHENYL      0.0033 
     28 H8         -4.3563   33.7457  -13.8224 H         1 PHENYL      0.0033 
     29 H9         -5.6150   33.2736  -14.9733 H         1 PHENYL      0.0033 
     30 H10        -4.1609   34.1453  -15.5284 H         1 PHENYL      0.0033 
     31 H11        -1.8451   31.0937  -15.2427 H         1 PHENYL      0.0033 
     32 H12        -1.9449   32.3308  -13.9815 H         1 PHENYL      0.0033 
     33 H13        -1.8668   32.8248  -15.6750 H         1 PHENYL      0.0033 
     34 H14        -4.8434   30.6074  -10.1770 H         1 PHENYL      0.1471 
     35 H15        -2.4417   34.0269  -10.8425 H         1 PHENYL      0.0939 
@<TRIPOS>BOND
     1    2    3 ar   
     2    2    7 ar   
     3    7    6 ar   
     4    6    5 ar   
     5    5    4 ar   
     6    4    3 ar   
     7    2    1 1    
     8    6    8 1    
     9    5    9 1    
    10    9   10 1    
    11   10   11 2    
    12   11   12 1    
    13   12   13 1    
    14   12   14 1    
    15   12   15 1    
    16   10   16 1    
    17   16   17 1    
    18   17   18 2    
    19   18   19 1    
    20   19   20 2    
    21   16   20 1    
    22    3   21 1    
    23    4   22 1    
    24    7   23 1    
    25   11   24 1    
    26   13   25 1    
    27   13   26 1    
    28   13   27 1    
    29   14   28 1    
    30   14   29 1    
    31   14   30 1    
    32   15   31 1    
    33   15   32 1    
    34   15   33 1    
    35   17   34 1    
    36   19   35 1    
@<TRIPOS>SUBSTRUCTURE
     1 PHENYL      2 PERM              0 ****  ****    0 ROOT 
@<TRIPOS>NORMAL
@<TRIPOS>FF_PBC
FORCE_FIELD_SETUP_FEATURE Force Field Setup information
v1.0  0 0.000000 0.000000 0.000000 0.000000 0.000000 0.000000 NONE 0 0 0 0 1 0 0 0 0 0 0 0 0
@<TRIPOS>RENDERING_ATTRS
ANTIALIASED_LINES 
*
