#	Name:			PISM00421
#	Creating user name:	malab
#	Creation time:		Tue Apr 09 23:41:05 2019

#	Modifying user name:	malab
#	Modification time:	Tue Apr 09 23:56:13 2019

@<TRIPOS>MOLECULE
PISM00421
   53    53     1     2     0
SMALL
USER_CHARGES


@<TRIPOS>ATOM
      1 C1         -8.5674   -2.7350   -4.2591 C.3       1 <1>         0.0000 
      2 C2         -8.2118   -4.2239   -3.9867 C.3       1 <1>         0.0000 
      3 C3         -6.7316   -4.4604   -4.0773 C.2       1 <1>         0.0000 
      4 C4         -5.7658   -3.3460   -4.1139 C.2       1 <1>         0.0000 
      5 C5         -6.1560   -2.0928   -3.8254 C.2       1 <1>         0.0000 
      6 C6         -7.6050   -1.8162   -3.4410 C.3       1 <1>         0.0000 
      7 O7         -6.3268   -5.6109   -4.1088 O.2       1 <1>         0.0000 
      8 C8         -5.2138   -0.9053   -3.8456 C.3       1 <1>         0.0000 
      9 C9        -10.0547   -2.4990   -3.8522 C.3       1 <1>         0.0000 
     10 C10        -8.4344   -2.4188   -5.7816 C.3       1 <1>         0.0000 
     11 S11        -4.0693   -3.7419   -4.5480 S.3       1 <1>         0.0000 
     12 C12        -4.2993   -3.9621   -6.3455 C.3       1 <1>         0.0000 
     13 C13        -4.2180   -5.4683   -6.7056 C.3       1 <1>         0.0000 
     14 O14        -7.9949   -0.4607   -3.7370 O.3       1 <1>         0.0000 
     15 C15        -7.7451   -2.1104   -1.9602 C.2       1 <1>         0.0000 
     16 C16        -4.5618   -5.7085   -8.1999 C.3       1 <1>         0.0000 
     17 C17        -4.4761   -7.2137   -8.5581 C.3       1 <1>         0.0000 
     18 S18        -4.9653   -7.4224  -10.3031 S.3       1 <1>         0.0000 
     19 C19        -8.5539   -1.4309   -1.1350 C.2       1 <1>         0.0000 
     20 C20        -8.6917   -1.7637    0.2984 C.2       1 <1>         0.0000 
     21 C21        -8.6934   -0.8182    1.2510 C.2       1 <1>         0.0000 
     22 C22        -8.5141    0.6342    1.0490 C.2       1 <1>         0.0000 
     23 C23        -8.8530   -3.2173    0.6837 C.3       1 <1>         0.0000 
     24 O24        -8.7623    1.3899    1.9768 O.2       1 <1>         0.0000 
     25 O25        -8.0741    1.1035   -0.1242 O.3       1 <1>         0.0000 
     26 H1         -8.7344   -4.8737   -4.7056 H         1 <1>         0.0000 
     27 H2         -8.5223   -4.5286   -2.9757 H         1 <1>         0.0000 
     28 H3         -4.1673   -1.1573   -4.0591 H         1 <1>         0.0000 
     29 H4         -5.2309   -0.4128   -2.8621 H         1 <1>         0.0000 
     30 H5         -5.5400   -0.1924   -4.6184 H         1 <1>         0.0000 
     31 H6        -10.7190   -3.1309   -4.4625 H         1 <1>         0.0000 
     32 H7        -10.3426   -1.4483   -4.0067 H         1 <1>         0.0000 
     33 H8        -10.2335   -2.7545   -2.7969 H         1 <1>         0.0000 
     34 H9         -7.4095   -2.5707   -6.1408 H         1 <1>         0.0000 
     35 H10        -8.7118   -1.3750   -5.9903 H         1 <1>         0.0000 
     36 H11        -9.0949   -3.0679   -6.3760 H         1 <1>         0.0000 
     37 H12        -3.4981   -3.4130   -6.8629 H         1 <1>         0.0000 
     38 H13        -5.2625   -3.5391   -6.6642 H         1 <1>         0.0000 
     39 H14        -4.9277   -6.0393   -6.0902 H         1 <1>         0.0000 
     40 H15        -3.2026   -5.8381   -6.4855 H         1 <1>         0.0000 
     41 H16        -7.5437    0.1985   -3.2212 H         1 <1>         0.0000 
     42 H17        -7.1578   -2.9283   -1.5410 H         1 <1>         0.0000 
     43 H18        -3.8669   -5.1378   -8.8365 H         1 <1>         0.0000 
     44 H19        -5.5852   -5.3511   -8.3991 H         1 <1>         0.0000 
     45 H20        -5.1587   -7.8008   -7.9223 H         1 <1>         0.0000 
     46 H21        -3.4479   -7.5847   -8.4196 H         1 <1>         0.0000 
     47 H22        -4.8877   -8.4263  -10.3584 H         1 <1>         0.0000 
     48 H23        -9.1551   -0.6057   -1.5133 H         1 <1>         0.0000 
     49 H24        -8.8322   -1.1292    2.2874 H         1 <1>         0.0000 
     50 H25        -9.1766   -3.8195   -0.1794 H         1 <1>         0.0000 
     51 H26        -9.6071   -3.3376    1.4772 H         1 <1>         0.0000 
     52 H27        -7.8901   -3.6081    1.0454 H         1 <1>         0.0000 
     53 H28        -7.9872    2.0510   -0.1515 H         1 <1>         0.0000 
@<TRIPOS>BOND
     1    2    1 1    
     2    2    3 1    
     3    3    4 1    
     4    4    5 2    
     5    5    6 1    
     6    1    6 1    
     7    3    7 2    
     8    5    8 1    
     9    1    9 1    
    10    1   10 1    
    11    4   11 1    
    12   11   12 1    
    13   12   13 1    
    14    6   14 1    
    15    6   15 1    
    16   13   16 1    
    17   16   17 1    
    18   17   18 1    
    19   15   19 2    
    20   19   20 1    
    21   20   21 2    
    22   21   22 1    
    23   20   23 1    
    24   22   24 2    
    25   22   25 1    
    26    2   26 1    
    27    2   27 1    
    28    8   28 1    
    29    8   29 1    
    30    8   30 1    
    31    9   31 1    
    32    9   32 1    
    33    9   33 1    
    34   10   34 1    
    35   10   35 1    
    36   10   36 1    
    37   12   37 1    
    38   12   38 1    
    39   13   39 1    
    40   13   40 1    
    41   14   41 1    
    42   15   42 1    
    43   16   43 1    
    44   16   44 1    
    45   17   45 1    
    46   17   46 1    
    47   18   47 1    
    48   19   48 1    
    49   21   49 1    
    50   23   50 1    
    51   23   51 1    
    52   23   52 1    
    53   25   53 1    
@<TRIPOS>SUBSTRUCTURE
     1 ****        2 TEMP              0 ****  ****    0 ROOT 
@<TRIPOS>NORMAL
@<TRIPOS>FF_PBC
FORCE_FIELD_SETUP_FEATURE Force Field Setup information
v1.0  0 0.000000 0.000000 0.000000 0.000000 0.000000 0.000000 NONE 0 0 0 0 0 0 0 0 0 0 0 0 0
@<TRIPOS>RENDERING_ATTRS
ANTIALIASED_LINES 
*
