#	Name:			PISM00910.1
#	Creating user name:	baoopengkun
#	Creation time:		Fri Dec 14 10:31:16 2018

#	Modifying user name:	baoopengkun
#	Modification time:	Fri Dec 14 10:41:21 2018

@<TRIPOS>MOLECULE
PISM00910.1
   33    36     1     1     0
SMALL
GAST_HUCK


@<TRIPOS>ATOM
      1 C1         25.2862   18.7938  -13.1519 C.ar      1 <1>        -0.0300 
      2 C2         25.4116   20.1295  -12.7407 C.ar      1 <1>        -0.0087 
      3 C3         24.8540   20.5640  -11.5233 C.ar      1 <1>        -0.0087 
      4 C4         24.1576   19.6722  -10.6933 C.ar      1 <1>        -0.0300 
      5 C5         24.0415   18.3501  -11.1177 C.ar      1 <1>         0.0724 
      6 C6         24.5922   17.9219  -12.3155 C.ar      1 <1>         0.0724 
      7 C7         24.2590   16.4541  -12.4151 C.2       1 <1>         0.2425 
      8 N8         23.5579   16.0748  -11.3289 N.am      1 <1>        -0.1406 
      9 C9         23.3836   17.1335  -10.5155 C.2       1 <1>         0.2425 
     10 O10        24.5907   15.7428  -13.3479 O.2       1 <1>        -0.3690 
     11 O11        22.7902   17.1313   -9.4509 O.2       1 <1>        -0.3690 
     12 C12        23.0293   14.7426  -11.0954 C.3       1 <1>         0.2217 
     13 O13        21.9240   14.5268  -11.9951 O.3       1 <1>        -0.2347 
     14 C14        22.3034   13.5260  -12.7807 C.2       1 <1>         0.2491 
     15 C15        23.6217   12.9699  -12.4967 C.2       1 <1>         0.0288 
     16 C16        24.0557   13.7005  -11.4714 C.2       1 <1>        -0.0058 
     17 C17        24.3260   11.8470  -13.2072 C.3       1 <1>        -0.0323 
     18 O18        21.5883   13.0988  -13.6708 O.2       1 <1>        -0.3691 
     19 C19        24.9962   21.9023  -11.1363 C.ar      1 <1>        -0.0499 
     20 C20        25.6863   22.8059  -11.9486 C.ar      1 <1>        -0.0581 
     21 C21        26.2379   22.3753  -13.1573 C.ar      1 <1>        -0.0581 
     22 C22        26.0994   21.0416  -13.5506 C.ar      1 <1>        -0.0499 
     23 H1         25.7070   18.4321  -14.0844 H         1 <1>         0.0702 
     24 H2         23.7174   19.9808   -9.7508 H         1 <1>         0.0702 
     25 H3         22.6972   14.6035  -10.0530 H         1 <1>         0.1153 
     26 H4         25.0183   13.5755  -10.9774 H         1 <1>         0.0702 
     27 H5         24.1339   10.9013  -12.6796 H         1 <1>         0.0347 
     28 H6         25.4102   12.0329  -13.2346 H         1 <1>         0.0347 
     29 H7         23.9536   11.7647  -14.2394 H         1 <1>         0.0347 
     30 H8         24.5717   22.2531  -10.2003 H         1 <1>         0.0640 
     31 H9         25.7940   23.8419  -11.6412 H         1 <1>         0.0634 
     32 H10        26.7736   23.0767  -13.7901 H         1 <1>         0.0634 
     33 H11        26.5329   20.7227  -14.4939 H         1 <1>         0.0640 
@<TRIPOS>BOND
     1    2    1 ar   
     2    2    3 ar   
     3    3    4 ar   
     4    4    5 ar   
     5    5    6 ar   
     6    1    6 ar   
     7    6    7 1    
     8    7    8 am   
     9    8    9 am   
    10    5    9 1    
    11    7   10 2    
    12    9   11 2    
    13    8   12 1    
    14   12   13 1    
    15   13   14 1    
    16   14   15 1    
    17   15   16 2    
    18   12   16 1    
    19   15   17 1    
    20   14   18 2    
    21    3   19 ar   
    22   19   20 ar   
    23   20   21 ar   
    24   21   22 ar   
    25    2   22 ar   
    26    1   23 1    
    27    4   24 1    
    28   12   25 1    
    29   16   26 1    
    30   17   27 1    
    31   17   28 1    
    32   17   29 1    
    33   19   30 1    
    34   20   31 1    
    35   21   32 1    
    36   22   33 1    
@<TRIPOS>SUBSTRUCTURE
     1 ****        2 TEMP              0 ****  ****    0 ROOT 
@<TRIPOS>NORMAL
@<TRIPOS>FF_PBC
FORCE_FIELD_SETUP_FEATURE Force Field Setup information
v1.0  0 0.000000 0.000000 0.000000 0.000000 0.000000 0.000000 NONE 0 0 0 0 1 0 0 0 0 0 0 0 0
