#	Name:			PISM00690
#	Creating user name:	baoopengkun
#	Creation time:		Sat Dec 08 17:28:08 2018

#	Modifying user name:	baoopengkun
#	Modification time:	Sat Dec 08 17:28:26 2018

@<TRIPOS>MOLECULE
PISM00690
   36    38     3     2     0
SMALL
GAST_HUCK


@<TRIPOS>ATOM
      1 C1         25.9464   32.8632  -10.5454 C.3       1 PHENYL      0.0598 
      2 C          25.3390   32.6337  -11.9450 C.ar      1 PHENYL     -0.0613 
      3 C          26.1458   32.1560  -12.9853 C.ar      1 PHENYL     -0.0556 
      4 C          25.6365   32.0232  -14.2801 C.ar      1 PHENYL     -0.0444 
      5 C          24.2999   32.3361  -14.5402 C.ar      1 PHENYL     -0.0446 
      6 C          23.4715   32.7552  -13.4961 C.ar      1 PHENYL     -0.0444 
      7 C          23.9840   32.8792  -12.2014 C.ar      1 PHENYL     -0.0556 
      8 C          27.3729   33.4447  -10.5622 C.ar      2 PHENYL     -0.0634 
      9 C          28.2579   33.1197   -9.5271 C.ar      2 PHENYL     -0.0559 
     10 C          29.5677   33.6076   -9.5304 C.ar      2 PHENYL     -0.0086 
     11 C          29.9985   34.4430  -10.5630 C.ar      2 PHENYL      0.1547 
     12 C          29.1158   34.7923  -11.5869 C.ar      2 PHENYL     -0.0086 
     13 C          27.8073   34.3001  -11.5833 C.ar      2 PHENYL     -0.0559 
     14 C          25.1412   33.8612   -9.6940 C.ar      3 PHENYL     -0.0634 
     15 C          24.7333   33.5379   -8.3936 C.ar      3 PHENYL     -0.0559 
     16 C          23.9996   34.4519   -7.6316 C.ar      3 PHENYL     -0.0086 
     17 C          23.6748   35.7026   -8.1603 C.ar      3 PHENYL      0.1547 
     18 C          24.0825   36.0362   -9.4533 C.ar      3 PHENYL     -0.0086 
     19 C          24.8094   35.1177  -10.2159 C.ar      3 PHENYL     -0.0559 
     20 O20        25.9451   31.5693   -9.9165 O.3       1 PHENYL     -0.4556 
     21 F21        22.9788   36.5744   -7.4345 F         3 PHENYL     -0.1654 
     22 H1         27.1779   31.8818  -12.7916 H         1 PHENYL      0.0753 
     23 H2         26.2792   31.6762  -15.0835 H         1 PHENYL      0.0667 
     24 H3         23.9061   32.2511  -15.5484 H         1 PHENYL      0.0764 
     25 H4         22.4277   32.9830  -13.6904 H         1 PHENYL      0.0667 
     26 H5         23.3134   33.1623  -11.3973 H         1 PHENYL      0.0753 
     27 H6         27.9292   32.4860   -8.7093 H         2 PHENYL      0.0749 
     28 H7         30.2540   33.3416   -8.7334 H         2 PHENYL      0.0661 
     29 F29        31.2462   34.9058  -10.5709 F         2 PHENYL     -0.1654 
     30 H9         29.4526   35.4473  -12.3835 H         2 PHENYL      0.0661 
     31 H10        27.1357   34.5926  -12.3831 H         2 PHENYL      0.0749 
     32 H11        24.9831   32.5747   -7.9614 H         3 PHENYL      0.0749 
     33 H12        23.6796   34.1953   -6.6271 H         3 PHENYL      0.0661 
     34 H13        23.8311   37.0099   -9.8606 H         3 PHENYL      0.0661 
     35 H35        25.1124   35.3883  -11.2210 H         3 PHENYL      0.0749 
     36 H15        26.4708   30.9316  -10.3877 H         1 PHENYL      0.1834 
@<TRIPOS>BOND
     1    2    3 ar   
     2    2    7 ar   
     3    7    6 ar   
     4    6    5 ar   
     5    5    4 ar   
     6    4    3 ar   
     7    2    1 1    
     8    8    9 ar   
     9    8   13 ar   
    10   13   12 ar   
    11   12   11 ar   
    12   11   10 ar   
    13   10    9 ar   
    14    1    8 1    
    15   14   15 ar   
    16   14   19 ar   
    17   19   18 ar   
    18   18   17 ar   
    19   17   16 ar   
    20   16   15 ar   
    21    1   14 1    
    22    1   20 1    
    23   17   21 1    
    24    3   22 1    
    25    4   23 1    
    26    5   24 1    
    27    6   25 1    
    28    7   26 1    
    29    9   27 1    
    30   10   28 1    
    31   11   29 1    
    32   12   30 1    
    33   13   31 1    
    34   15   32 1    
    35   16   33 1    
    36   18   34 1    
    37   19   35 1    
    38   20   36 1    
@<TRIPOS>SUBSTRUCTURE
     1 PHENYL      2 PERM              0 ****  ****    2 ROOT 
     2 PHENYL      8 PERM              0 ****  ****    1  
     3 PHENYL     14 PERM              0 ****  ****    1  
@<TRIPOS>NORMAL
@<TRIPOS>FF_PBC
FORCE_FIELD_SETUP_FEATURE Force Field Setup information
v1.0  0 0.000000 0.000000 0.000000 0.000000 0.000000 0.000000 NONE 0 0 0 0 1 0 0 0 0 0 0 0 0
@<TRIPOS>RENDERING_ATTRS
ANTIALIASED_LINES 
*
