#	Name:			PISM00867.1
#	Creating user name:	baoopengkun
#	Creation time:		Thu Dec 13 23:15:37 2018

#	Modifying user name:	baoopengkun
#	Modification time:	Thu Dec 13 23:31:52 2018

@<TRIPOS>MOLECULE
PISM00867.1
   24    25     1     1     0
SMALL
GAST_HUCK


@<TRIPOS>ATOM
      1 H2          1.0646    0.9503    1.7390 H         1 <1>         0.0521 
      2 C2          2.4173   -0.5443    2.5113 C.ar      1 <1>        -0.0410 
      3 C3          3.6977   -1.0973    2.4262 C.ar      1 <1>         0.1186 
      4 C4          4.6156   -0.5972    1.4996 C.ar      1 <1>        -0.0033 
      5 C5          4.2517    0.4539    0.6544 C.ar      1 <1>         0.1584 
      6 C6          2.9726    1.0134    0.7424 C.ar      1 <1>         0.1273 
      7 C7          2.0557    0.5135    1.6714 C.ar      1 <1>        -0.0359 
      8 F8          5.1249    0.9164   -0.2380 F         1 <1>        -0.1911 
      9 O9          2.6106    2.0709   -0.0916 O.3       1 <1>        -0.2735 
     10 C10         1.9248    1.6804   -1.2900 C.3       1 <1>         0.2342 
     11 O11         1.6491    2.8772   -2.0443 O.3       1 <1>        -0.2316 
     12 C12         2.3492    2.7557   -3.1654 C.2       1 <1>         0.2494 
     13 C13         3.0981    1.5121   -3.3059 C.2       1 <1>         0.0291 
     14 C14         2.8268    0.8565   -2.1796 C.2       1 <1>        -0.0022 
     15 C15         3.9608    1.0668   -4.4547 C.3       1 <1>        -0.0323 
     16 O16         2.3535    3.6245   -4.0204 O.2       1 <1>        -0.3691 
     17 H1          1.7081   -0.9392    3.2315 H         1 <1>         0.0543 
     18 F18         4.0429   -2.1008    3.2274 F         1 <1>        -0.1939 
     19 H3          5.6097   -1.0255    1.4358 H         1 <1>         0.0562 
     20 H4          0.9784    1.1587   -1.0717 H         1 <1>         0.1195 
     21 H5          3.2096   -0.1337   -1.9366 H         1 <1>         0.0705 
     22 H6          3.6907    0.0428   -4.7532 H         1 <1>         0.0347 
     23 H7          5.0174    1.0870   -4.1487 H         1 <1>         0.0347 
     24 H8          3.8248    1.7371   -5.3167 H         1 <1>         0.0347 
@<TRIPOS>BOND
     1    7    1 1    
     2    3    2 ar   
     3    4    3 ar   
     4    5    4 ar   
     5    6    5 ar   
     6    6    7 ar   
     7    2    7 ar   
     8    5    8 1    
     9    6    9 1    
    10    9   10 1    
    11   10   11 1    
    12   11   12 1    
    13   12   13 1    
    14   13   14 2    
    15   10   14 1    
    16   13   15 1    
    17   12   16 2    
    18    2   17 1    
    19    3   18 1    
    20    4   19 1    
    21   10   20 1    
    22   14   21 1    
    23   15   22 1    
    24   15   23 1    
    25   15   24 1    
@<TRIPOS>SUBSTRUCTURE
     1 ****        2 TEMP              0 ****  ****    0 ROOT 
@<TRIPOS>NORMAL
@<TRIPOS>FF_PBC
FORCE_FIELD_SETUP_FEATURE Force Field Setup information
v1.0  0 0.000000 0.000000 0.000000 0.000000 0.000000 0.000000 NONE 0 0 0 0 1 0 0 0 0 0 0 0 0
