#	Name:			PISM00721
#	Creating user name:	baoopengkun
#	Creation time:		Sun Jan 20 21:34:04 2019

#	Modifying user name:	baoopengkun
#	Modification time:	Sun Jan 20 21:51:51 2019

@<TRIPOS>MOLECULE
PISM00721
   82    85     1     1     0
SMALL
GAST_HUCK


@<TRIPOS>ATOM
      1 C1         -0.4883    1.2504   -0.3154 C.3       1 <1>        -0.0163 
      2 C2         -0.8503   -0.2038    0.0975 C.3       1 <1>         0.0819 
      3 C3         -0.3090   -0.5310    1.5175 C.3       1 <1>         0.0835 
      4 C4         -0.8085    0.5071    2.5559 C.3       1 <1>        -0.0028 
      5 C5         -0.3808    1.9339    2.1076 C.3       1 <1>         0.0681 
      6 C6         -0.9539    2.3392    0.7044 C.3       1 <1>        -0.0055 
      7 C7         -0.4422    3.7818    0.3019 C.3       1 <1>        -0.0276 
      8 C8          1.0127    4.0933    0.7831 C.3       1 <1>        -0.0063 
      9 C9          1.0423    4.3955    2.3220 C.3       1 <1>         0.0801 
     10 O10        -0.1704    4.2109    3.0910 O.3       1 <1>        -0.2763 
     11 C11        -0.7441    2.9952    3.1138 C.2       1 <1>         0.2374 
     12 O12        -1.5937    2.7659    3.9580 O.2       1 <1>        -0.3701 
     13 C13        -0.5947    4.1505   -1.2059 C.3       1 <1>        -0.0487 
     14 C14        -0.3687    5.6784   -1.4583 C.3       1 <1>        -0.0468 
     15 C15         0.8142    6.3169   -0.6442 C.3       1 <1>        -0.0257 
     16 C16         1.7085    5.1481   -0.1463 C.3       1 <1>        -0.0298 
     17 C17         3.0471    5.7851    0.2998 C.3       1 <1>        -0.0491 
     18 C18         3.1744    7.0278   -0.6287 C.3       1 <1>        -0.0491 
     19 C19         1.8719    7.1176   -1.4894 C.3       1 <1>        -0.0304 
     20 O20        -0.2571   -1.0879   -0.8747 O.3       1 <1>        -0.3892 
     21 O21         1.1304   -0.5071    1.5151 O.3       1 <1>        -0.3891 
     22 C22         4.9380   11.5602   -2.3214 C.3       1 <1>        -0.0483 
     23 C23        -2.5226    2.3859    0.7486 C.3       1 <1>        -0.0568 
     24 C24         0.2778    7.2027    0.5262 C.3       1 <1>        -0.0590 
     25 C25         1.5525    8.5871   -1.9510 C.3       1 <1>        -0.0120 
     26 C26         2.7667    9.2557   -2.6936 C.3       1 <1>         0.0841 
     27 C27         2.5525   10.7566   -3.0693 C.3       1 <1>         0.0839 
     28 C28         3.8670   11.5134   -3.4639 C.3       1 <1>        -0.0154 
     29 C29         7.0986   10.5709   -1.3517 C.3       1 <1>        -0.0653 
     30 H1         -0.9436    1.4252   -1.3024 H         1 <1>         0.0298 
     31 C31         6.1275   10.5836   -2.5614 C.3       1 <1>        -0.0556 
     32 C32         0.2589    8.6585   -2.8108 C.3       1 <1>        -0.0597 
     33 O33         3.1264    8.5953   -3.9242 O.3       1 <1>        -0.3890 
     34 O34         1.6393   10.8458   -4.1777 O.3       1 <1>        -0.3890 
     35 C35         3.5117   12.9617   -3.9162 C.3       1 <1>        -0.0600 
     36 H2          0.6043    1.2970   -0.4376 H         1 <1>         0.0298 
     37 H3         -1.9428   -0.3510    0.0688 H         1 <1>         0.0619 
     38 H4         -0.6512   -1.5373    1.8204 H         1 <1>         0.0621 
     39 H5         -0.3384    0.2742    3.5268 H         1 <1>         0.0319 
     40 H6         -1.8936    0.4208    2.7061 H         1 <1>         0.0319 
     41 H7          0.7122    1.8472    2.1079 H         1 <1>         0.0560 
     42 H8         -1.0972    4.5046    0.8082 H         1 <1>         0.0311 
     43 H9          1.6346    3.1988    0.6148 H         1 <1>         0.0332 
     44 H10         1.2080    5.4640    2.4950 H         1 <1>         0.0616 
     45 H11         1.8777    3.8714    2.8160 H         1 <1>         0.0616 
     46 H12        -1.5955    3.9032   -1.5906 H         1 <1>         0.0268 
     47 H13         0.1169    3.5558   -1.7996 H         1 <1>         0.0268 
     48 H14        -1.3085    6.1945   -1.2019 H         1 <1>         0.0271 
     49 H15        -0.2176    5.8005   -2.5428 H         1 <1>         0.0271 
     50 H16         2.0070    4.6040   -1.0638 H         1 <1>         0.0310 
     51 H17         3.8908    5.0825    0.1842 H         1 <1>         0.0268 
     52 H18         3.0415    6.1087    1.3498 H         1 <1>         0.0268 
     53 H19         4.0681    6.9422   -1.2696 H         1 <1>         0.0268 
     54 H20         3.2910    7.9293   -0.0041 H         1 <1>         0.0268 
     55 H21         2.0379    6.5299   -2.4064 H         1 <1>         0.0310 
     56 H22        -0.4572   -2.0074   -0.7267 H         1 <1>         0.2099 
     57 H23         1.5002   -1.1023    0.8693 H         1 <1>         0.2099 
     58 H24         4.4647   11.3652   -1.3465 H         1 <1>         0.0269 
     59 H25         5.3844   12.5656   -2.2490 H         1 <1>         0.0269 
     60 H26        -2.9429    2.6602   -0.2274 H         1 <1>         0.0237 
     61 H27        -2.8744    3.1280    1.4813 H         1 <1>         0.0237 
     62 H28        -2.9971    1.4379    1.0204 H         1 <1>         0.0237 
     63 H29        -0.3217    8.0364    0.1357 H         1 <1>         0.0235 
     64 H30         1.0912    7.6321    1.1271 H         1 <1>         0.0235 
     65 H31        -0.3821    6.6459    1.2009 H         1 <1>         0.0235 
     66 H32         1.3787    9.1913   -1.0459 H         1 <1>         0.0327 
     67 H33         3.6148    9.2325   -1.9991 H         1 <1>         0.0622 
     68 H34         2.0968   11.2876   -2.2180 H         1 <1>         0.0622 
     69 H35         4.2997   11.0091   -4.3446 H         1 <1>         0.0324 
     70 H36         7.9432    9.8919   -1.5495 H         1 <1>         0.0230 
     71 H37         6.5771   10.2244   -0.4457 H         1 <1>         0.0230 
     72 H38         7.4977   11.5802   -1.1661 H         1 <1>         0.0230 
     73 H39         6.6818   10.9052   -3.4596 H         1 <1>         0.0263 
     74 H40         5.7782    9.5556   -2.7414 H         1 <1>         0.0263 
     75 H41         0.4138    8.1499   -3.7742 H         1 <1>         0.0233 
     76 H42        -0.0427    9.6977   -2.9979 H         1 <1>         0.0233 
     77 H43        -0.5940    8.1985   -2.3008 H         1 <1>         0.0233 
     78 H44         3.4422    7.7055   -3.8168 H         1 <1>         0.2099 
     79 H45         1.9496   10.3356   -4.9204 H         1 <1>         0.2099 
     80 H46         2.7900   12.9605   -4.7474 H         1 <1>         0.0233 
     81 H47         4.4130   13.4915   -4.2634 H         1 <1>         0.0233 
     82 H48         3.0749   13.5250   -3.0771 H         1 <1>         0.0233 
@<TRIPOS>BOND
     1    2    1 1    
     2    2    3 1    
     3    3    4 1    
     4    4    5 1    
     5    5    6 1    
     6    1    6 1    
     7    6    7 1    
     8    7    8 1    
     9    8    9 1    
    10    9   10 1    
    11   10   11 1    
    12   11   12 2    
    13    5   11 1    
    14    7   13 1    
    15   13   14 1    
    16   14   15 1    
    17   15   16 1    
    18    8   16 1    
    19   16   17 1    
    20   17   18 1    
    21   18   19 1    
    22   15   19 1    
    23    2   20 1    
    24    3   21 1    
    25   28   22 1    
    26    6   23 1    
    27   15   24 1    
    28   19   25 1    
    29   25   26 1    
    30   26   27 1    
    31   27   28 1    
    32   31   29 1    
    33    1   30 1    
    34   22   31 1    
    35   25   32 1    
    36   26   33 1    
    37   27   34 1    
    38   28   35 1    
    39    1   36 1    
    40    2   37 1    
    41    3   38 1    
    42    4   39 1    
    43    4   40 1    
    44    5   41 1    
    45    7   42 1    
    46    8   43 1    
    47    9   44 1    
    48    9   45 1    
    49   13   46 1    
    50   13   47 1    
    51   14   48 1    
    52   14   49 1    
    53   16   50 1    
    54   17   51 1    
    55   17   52 1    
    56   18   53 1    
    57   18   54 1    
    58   19   55 1    
    59   20   56 1    
    60   21   57 1    
    61   22   58 1    
    62   22   59 1    
    63   23   60 1    
    64   23   61 1    
    65   23   62 1    
    66   24   63 1    
    67   24   64 1    
    68   24   65 1    
    69   25   66 1    
    70   26   67 1    
    71   27   68 1    
    72   28   69 1    
    73   29   70 1    
    74   29   71 1    
    75   29   72 1    
    76   31   73 1    
    77   31   74 1    
    78   32   75 1    
    79   32   76 1    
    80   32   77 1    
    81   33   78 1    
    82   34   79 1    
    83   35   80 1    
    84   35   81 1    
    85   35   82 1    
@<TRIPOS>SUBSTRUCTURE
     1 ****        2 TEMP              0 ****  ****    0 ROOT 
@<TRIPOS>NORMAL
@<TRIPOS>FF_PBC
FORCE_FIELD_SETUP_FEATURE Force Field Setup information
v1.0  0 0.000000 0.000000 0.000000 0.000000 0.000000 0.000000 NONE 0 0 0 0 1 0 0 0 0 0 0 0 0
