#	Name:			PISM00923.1
#	Creating user name:	baoopengkun
#	Creation time:		Fri Dec 14 10:31:16 2018

#	Modifying user name:	baoopengkun
#	Modification time:	Fri Dec 14 11:08:15 2018

@<TRIPOS>MOLECULE
PISM00923.1
   41    44     1     1     0
SMALL
GAST_HUCK


@<TRIPOS>ATOM
      1 C1         28.2187    7.8089  -21.3100 C.ar      1 <1>        -0.0146 
      2 C2         28.8730    6.6209  -21.6659 C.ar      1 <1>         0.0715 
      3 C3         28.1667    5.4049  -21.6869 C.ar      1 <1>        -0.0299 
      4 C4         26.8194    5.3325  -21.3092 C.ar      1 <1>        -0.0474 
      5 C5         26.1912    6.5226  -20.9469 C.ar      1 <1>         0.0609 
      6 C6         26.8735    7.7299  -20.9529 C.ar      1 <1>         0.0637 
      7 C7         25.8681    8.7673  -20.5194 C.2       1 <1>         0.2418 
      8 N8         24.6827    8.1746  -20.2769 N.am      1 <1>        -0.1418 
      9 C9         24.7877    6.8511  -20.5016 C.2       1 <1>         0.2355 
     10 O10        26.1188    9.9559  -20.4176 O.2       1 <1>        -0.3668 
     11 O11        23.8972    6.0288  -20.3738 O.2       1 <1>        -0.3726 
     12 C12        23.4890    8.8522  -19.8034 C.3       1 <1>         0.2214 
     13 O13        23.6982    9.2435  -18.4318 O.3       1 <1>        -0.2348 
     14 C14        23.6548   10.5703  -18.4369 C.2       1 <1>         0.2491 
     15 C15        23.4004   11.1852  -19.7346 C.2       1 <1>         0.0288 
     16 C16        23.2911   10.1448  -20.5588 C.2       1 <1>        -0.0059 
     17 C17        23.3015   12.6514  -20.0541 C.3       1 <1>        -0.0323 
     18 O18        23.8078   11.2252  -17.4201 O.2       1 <1>        -0.3691 
     19 N19        30.1875    6.6681  -21.9972 N.pl3     1 <1>        -0.2353 
     20 C20        31.0525    5.8151  -21.5127 C.2       1 <1>         0.2309 
     21 O21        30.7177    4.9548  -20.7148 O.2       1 <1>        -0.3661 
     22 C22        32.5214    5.8516  -21.8899 C.ar      1 <1>         0.0558 
     23 C23        32.9569    6.2917  -23.1467 C.ar      1 <1>        -0.0413 
     24 C24        34.3225    6.3662  -23.4379 C.ar      1 <1>        -0.0560 
     25 C25        35.2651    5.9593  -22.4901 C.ar      1 <1>        -0.0574 
     26 C26        34.8375    5.4771  -21.2506 C.ar      1 <1>        -0.0560 
     27 C27        33.4722    5.4240  -20.9552 C.ar      1 <1>        -0.0413 
     28 H1         28.7340    8.7632  -21.3041 H         1 <1>         0.0598 
     29 H2         28.6643    4.4960  -22.0092 H         1 <1>         0.0574 
     30 H3         26.2785    4.3918  -21.2988 H         1 <1>         0.0651 
     31 H4         22.5915    8.2158  -19.8789 H         1 <1>         0.1152 
     32 H5         23.0972   10.2097  -21.6286 H         1 <1>         0.0702 
     33 H6         23.4961   12.8313  -21.1220 H         1 <1>         0.0347 
     34 H7         24.0406   13.2084  -19.4590 H         1 <1>         0.0347 
     35 H8         22.2932   13.0128  -19.8040 H         1 <1>         0.0347 
     36 H9         30.5101    7.4272  -22.6115 H         1 <1>         0.2117 
     37 H10        32.2449    6.5696  -23.9158 H         1 <1>         0.0671 
     38 H11        34.6526    6.7377  -24.4036 H         1 <1>         0.0629 
     39 H12        36.3257    6.0159  -22.7165 H         1 <1>         0.0654 
     40 H13        35.5659    5.1448  -20.5166 H         1 <1>         0.0629 
     41 H14        33.1526    5.0496  -19.9873 H         1 <1>         0.0671 
@<TRIPOS>BOND
     1    2    1 ar   
     2    2    3 ar   
     3    3    4 ar   
     4    4    5 ar   
     5    6    5 ar   
     6    1    6 ar   
     7    6    7 1    
     8    7    8 am   
     9    9    8 am   
    10    5    9 1    
    11    7   10 2    
    12    9   11 2    
    13    8   12 1    
    14   12   13 1    
    15   13   14 1    
    16   15   14 1    
    17   16   15 2    
    18   12   16 1    
    19   15   17 1    
    20   14   18 2    
    21    2   19 1    
    22   19   20 1    
    23   20   21 2    
    24   20   22 1    
    25   22   23 ar   
    26   23   24 ar   
    27   24   25 ar   
    28   25   26 ar   
    29   26   27 ar   
    30   22   27 ar   
    31    1   28 1    
    32    3   29 1    
    33    4   30 1    
    34   12   31 1    
    35   16   32 1    
    36   17   33 1    
    37   17   34 1    
    38   17   35 1    
    39   19   36 1    
    40   23   37 1    
    41   24   38 1    
    42   25   39 1    
    43   26   40 1    
    44   27   41 1    
@<TRIPOS>SUBSTRUCTURE
     1 ****        2 TEMP              0 ****  ****    0 ROOT 
@<TRIPOS>NORMAL
@<TRIPOS>FF_PBC
FORCE_FIELD_SETUP_FEATURE Force Field Setup information
v1.0  0 0.000000 0.000000 0.000000 0.000000 0.000000 0.000000 NONE 0 0 0 0 1 0 0 0 0 0 0 0 0
