#	Name:			PISM01011.3
#	Creating user name:	malab
#	Creation time:		Tue Jul 02 10:08:54 2019

#	Modifying user name:	malab
#	Modification time:	Tue Jul 02 10:12:43 2019

@<TRIPOS>MOLECULE
PISM01011.3
   55    57     1     1     0
SMALL
GAST_HUCK


@<TRIPOS>ATOM
      1 C1         -0.8375   -1.3290    7.0290 C.3       1 <1>        -0.0353 
      2 C2         -0.1067   -1.1102    5.7197 C.2       1 <1>        -0.0766 
      3 C3         -0.9021   -0.4429    4.6220 C.3       1 <1>        -0.0210 
      4 C4         -0.8362   -1.2398    3.2941 C.3       1 <1>        -0.0292 
      5 C5          0.4020   -0.8631    2.4436 C.3       1 <1>        -0.0077 
      6 C6          1.7430   -1.0890    3.0963 C.2       1 <1>        -0.0210 
      7 C7          2.0317   -1.3393    4.3761 C.2       1 <1>        -0.0193 
      8 C8          1.1706   -1.4860    5.5656 C.2       1 <1>        -0.0930 
      9 C9          3.4955   -1.4440    4.4548 C.2       1 <1>         0.0886 
     10 C10         4.1970   -1.2830    3.1342 C.3       1 <1>         0.1382 
     11 C11         2.9635   -1.0208    2.2136 C.3       1 <1>         0.1231 
     12 O12         4.0925   -1.5979    5.5087 O.2       1 <1>        -0.3873 
     13 C13         5.1840   -0.1555    3.3510 C.2       1 <1>         0.1022 
     14 C14         4.9271    1.2156    2.8725 C.2       1 <1>         0.2521 
     15 O15         4.9084   -2.4650    2.7197 O.3       1 <1>        -0.4429 
     16 C16         6.3453   -0.3770    3.9812 C.2       1 <1>         0.1679 
     17 O17         6.6425   -1.6057    4.4345 O.3       1 <1>        -0.1891 
     18 C18         7.9331   -1.7318    5.0587 C.3       1 <1>         0.2675 
     19 O19         8.0647   -3.0937    5.5121 O.3       1 <1>        -0.2254 
     20 C20         9.0813   -3.6009    4.8266 C.2       1 <1>         0.2500 
     21 C21         9.7335   -2.6833    3.9010 C.2       1 <1>         0.0297 
     22 C22         9.0444   -1.5533    4.0470 C.2       1 <1>         0.0047 
     23 O23         9.4471   -4.7543    4.9720 O.2       1 <1>        -0.3691 
     24 C24        10.9005   -2.9552    2.9913 C.3       1 <1>        -0.0323 
     25 O25         2.9053   -1.8284    1.0167 O.3       1 <1>        -0.2680 
     26 C26         2.6530   -3.1506    1.1057 C.2       1 <1>         0.2324 
     27 C27         2.2660   -3.8764    2.3758 C.3       1 <1>         0.0374 
     28 O28         2.7101   -3.7919    0.0697 O.2       1 <1>        -0.3705 
     29 O29         5.2109    1.4844    1.7191 O.2       1 <1>        -0.3646 
     30 O30         4.4263    2.1795    3.6622 O.3       1 <1>        -0.2834 
     31 C31         3.9866    1.7729    4.9735 C.3       1 <1>         0.0643 
     32 H1         -1.2061   -0.3635    7.4072 H         1 <1>         0.0403 
     33 H2         -0.2050   -1.7788    7.8092 H         1 <1>         0.0403 
     34 H3         -1.6959   -1.9973    6.8620 H         1 <1>         0.0403 
     35 H4         -0.5513    0.5924    4.4892 H         1 <1>         0.0441 
     36 H5         -1.9608   -0.3925    4.9271 H         1 <1>         0.0441 
     37 H6         -1.7287   -1.0053    2.6874 H         1 <1>         0.0321 
     38 H7         -0.8510   -2.3215    3.5059 H         1 <1>         0.0321 
     39 H8          0.3454    0.2015    2.1654 H         1 <1>         0.0492 
     40 H9          0.3606   -1.4506    1.5119 H         1 <1>         0.0492 
     41 H10         1.6738   -1.9543    6.4113 H         1 <1>         0.0229 
     42 H11         2.9973    0.0049    1.8215 H         1 <1>         0.0736 
     43 H12         5.2783   -2.3682    1.8477 H         1 <1>         0.1861 
     44 H13         7.0170    0.4768    4.1008 H         1 <1>         0.2029 
     45 H14         8.0463   -1.0663    5.9314 H         1 <1>         0.1277 
     46 H15         9.2617   -0.6360    3.5013 H         1 <1>         0.0711 
     47 H16        10.7491   -2.4632    2.0188 H         1 <1>         0.0347 
     48 H17        11.0081   -4.0381    2.8284 H         1 <1>         0.0347 
     49 H18        11.8220   -2.5693    3.4518 H         1 <1>         0.0347 
     50 H19         1.2333   -3.6299    2.6534 H         1 <1>         0.0483 
     51 H20         2.9273   -3.6925    3.2278 H         1 <1>         0.0483 
     52 H21         2.2999   -4.9585    2.1801 H         1 <1>         0.0483 
     53 H22         3.1107    1.1128    4.9084 H         1 <1>         0.0574 
     54 H23         3.6733    2.6855    5.5018 H         1 <1>         0.0574 
     55 H24         4.7768    1.2924    5.5705 H         1 <1>         0.0574 
@<TRIPOS>BOND
     1    2    1 1    
     2    2    3 1    
     3    3    4 1    
     4    4    5 1    
     5    5    6 1    
     6    6    7 2    
     7    7    8 1    
     8    2    8 2    
     9    7    9 1    
    10    9   10 1    
    11   10   11 1    
    12    6   11 1    
    13    9   12 2    
    14   10   13 1    
    15   13   14 1    
    16   10   15 1    
    17   13   16 2    
    18   16   17 1    
    19   17   18 1    
    20   18   19 1    
    21   19   20 1    
    22   20   21 1    
    23   21   22 2    
    24   18   22 1    
    25   20   23 2    
    26   21   24 1    
    27   11   25 1    
    28   25   26 1    
    29   26   27 1    
    30   26   28 2    
    31   14   29 2    
    32   14   30 1    
    33   30   31 1    
    34    1   32 1    
    35    1   33 1    
    36    1   34 1    
    37    3   35 1    
    38    3   36 1    
    39    4   37 1    
    40    4   38 1    
    41    5   39 1    
    42    5   40 1    
    43    8   41 1    
    44   11   42 1    
    45   15   43 1    
    46   16   44 1    
    47   18   45 1    
    48   22   46 1    
    49   24   47 1    
    50   24   48 1    
    51   24   49 1    
    52   27   50 1    
    53   27   51 1    
    54   27   52 1    
    55   31   53 1    
    56   31   54 1    
    57   31   55 1    
@<TRIPOS>SUBSTRUCTURE
     1 ****        2 TEMP              0 ****  ****    0 ROOT 
@<TRIPOS>NORMAL
@<TRIPOS>FF_PBC
FORCE_FIELD_SETUP_FEATURE Force Field Setup information
v1.0  0 0.000000 0.000000 0.000000 0.000000 0.000000 0.000000 NONE 0 0 0 0 1 0 0 0 0 0 0 0 0
