#	Name:			PISM00846.1
#	Creating user name:	baoopengkun
#	Creation time:		Thu Dec 13 14:40:19 2018

#	Modifying user name:	baoopengkun
#	Modification time:	Thu Dec 13 15:04:27 2018

@<TRIPOS>MOLECULE
PISM00846.1
   30    31     1     1     0
SMALL
GAST_HUCK


@<TRIPOS>ATOM
      1 C1         -9.2040   18.1895    9.1414 C.ar      1 <1>        -0.0262 
      2 C2         -8.5997   17.0537    9.6880 C.ar      1 <1>        -0.0491 
      3 C3         -7.4360   16.5267    9.1154 C.ar      1 <1>         0.0506 
      4 C4         -6.8892   17.1428    7.9835 C.ar      1 <1>        -0.0491 
      5 C5         -7.4933   18.2782    7.4352 C.ar      1 <1>        -0.0262 
      6 C6         -8.6436   18.8106    8.0229 C.ar      1 <1>         0.1037 
      7 C7         -6.7743   15.3025    9.7127 C.2       1 <1>         0.2545 
      8 O8         -9.2353   19.9578    7.4976 O.3       1 <1>        -0.2671 
      9 C9         -8.5607   21.1788    7.8344 C.3       1 <1>         0.2369 
     10 C10        -8.5915   21.4067    9.3280 C.2       1 <1>        -0.0017 
     11 C11        -9.3166   22.4840    9.6216 C.2       1 <1>         0.0292 
     12 C12        -9.7447   22.9730    8.3158 C.2       1 <1>         0.2495 
     13 O13        -9.3171   22.2702    7.2742 O.3       1 <1>        -0.2311 
     14 C14        -9.6157   23.0606   10.9784 C.3       1 <1>        -0.0323 
     15 O15       -10.4415   23.9643    8.1825 O.2       1 <1>        -0.3691 
     16 O16        -7.2611   14.7822   10.7050 O.2       1 <1>        -0.3624 
     17 O17        -5.6636   14.8105    9.1417 O.3       1 <1>        -0.2824 
     18 C18        -5.1310   13.6447    9.8013 C.3       1 <1>         0.0645 
     19 H1        -10.1089   18.5947    9.5827 H         1 <1>         0.0557 
     20 H2         -9.0402   16.5825   10.5613 H         1 <1>         0.0645 
     21 H3         -5.9916   16.7415    7.5237 H         1 <1>         0.0645 
     22 H4         -7.0721   18.7470    6.5519 H         1 <1>         0.0557 
     23 H5         -7.5315   21.2076    7.4406 H         1 <1>         0.1201 
     24 H6         -8.0946   20.7760   10.0641 H         1 <1>         0.0705 
     25 H7        -10.1964   23.9901   10.8800 H         1 <1>         0.0347 
     26 H8         -8.6754   23.2815   11.5051 H         1 <1>         0.0347 
     27 H9        -10.1981   22.3365   11.5672 H         1 <1>         0.0347 
     28 H10        -5.8543   12.8135    9.7904 H         1 <1>         0.0575 
     29 H11        -4.8444   13.8691   10.8414 H         1 <1>         0.0575 
     30 H12        -4.2309   13.3286    9.2540 H         1 <1>         0.0575 
@<TRIPOS>BOND
     1    2    1 ar   
     2    2    3 ar   
     3    3    4 ar   
     4    4    5 ar   
     5    5    6 ar   
     6    1    6 ar   
     7    3    7 1    
     8    6    8 1    
     9    8    9 1    
    10    9   10 1    
    11   10   11 2    
    12   11   12 1    
    13   12   13 1    
    14    9   13 1    
    15   11   14 1    
    16   12   15 2    
    17    7   16 2    
    18    7   17 1    
    19   17   18 1    
    20    1   19 1    
    21    2   20 1    
    22    4   21 1    
    23    5   22 1    
    24    9   23 1    
    25   10   24 1    
    26   14   25 1    
    27   14   26 1    
    28   14   27 1    
    29   18   28 1    
    30   18   29 1    
    31   18   30 1    
@<TRIPOS>SUBSTRUCTURE
     1 ****        2 TEMP              0 ****  ****    0 ROOT 
@<TRIPOS>NORMAL
@<TRIPOS>FF_PBC
FORCE_FIELD_SETUP_FEATURE Force Field Setup information
v1.0  0 0.000000 0.000000 0.000000 0.000000 0.000000 0.000000 NONE 0 0 0 0 1 0 0 0 0 0 0 0 0
