#	Name:			PISM00895.1
#	Creating user name:	baoopengkun
#	Creation time:		Fri Dec 14 10:03:55 2018

#	Modifying user name:	baoopengkun
#	Modification time:	Fri Dec 14 10:07:14 2018

@<TRIPOS>MOLECULE
PISM00895.1
   31    32     1     1     0
SMALL
GAST_HUCK


@<TRIPOS>ATOM
      1 C1         15.1008   13.9218    3.8108 C.ar      1 <1>        -0.0584 
      2 C2         16.3302   13.9320    4.4765 C.ar      1 <1>        -0.0685 
      3 C3         17.0281   12.7379    4.6777 C.ar      1 <1>        -0.0687 
      4 C4         16.4943   11.5332    4.2123 C.ar      1 <1>        -0.0685 
      5 C5         15.2661   11.5254    3.5447 C.ar      1 <1>        -0.0584 
      6 C6         14.5648   12.7183    3.3372 C.ar      1 <1>        -0.0210 
      7 N7         12.2287   11.9378    3.3709 N.am      1 <1>        -0.2510 
      8 C8         11.0234   11.6316    2.8501 C.2       1 <1>         0.3266 
      9 O9         10.1821   11.0148    3.4816 O.2       1 <1>        -0.3772 
     10 O10        10.8383   12.0527    1.5927 O.3       1 <1>        -0.2138 
     11 C11         9.5314   11.7668    1.0668 C.3       1 <1>         0.2419 
     12 C12         9.1880   10.2956    1.0690 C.2       1 <1>        -0.0022 
     13 C13         8.0414   10.0959    1.7167 C.2       1 <1>         0.0291 
     14 C14         7.6449   11.4346    2.1446 C.2       1 <1>         0.2494 
     15 O15         8.4847   12.4115    1.8205 O.3       1 <1>        -0.2315 
     16 C16         7.3284    8.7955    1.9673 C.3       1 <1>        -0.0323 
     17 O17         6.6111   11.6489    2.7543 O.2       1 <1>        -0.3691 
     18 C18        13.2215   12.6774    2.5944 C.3       1 <1>         0.0664 
     19 H1         14.5678   14.8560    3.6661 H         1 <1>         0.0557 
     20 H2         16.7440   14.8685    4.8383 H         1 <1>         0.0599 
     21 H3         17.9830   12.7462    5.1946 H         1 <1>         0.0559 
     22 H4         17.0334   10.6038    4.3695 H         1 <1>         0.0599 
     23 H5         14.8562   10.5860    3.1866 H         1 <1>         0.0557 
     24 H6         12.4279   11.6664    4.3138 H         1 <1>         0.1894 
     25 H7          9.4923   12.1406    0.0313 H         1 <1>         0.1194 
     26 H8          9.7941    9.5171    0.6078 H         1 <1>         0.0704 
     27 H9          6.7021    8.5475    1.0978 H         1 <1>         0.0347 
     28 H10         6.6881    8.8836    2.8578 H         1 <1>         0.0347 
     29 H11         8.0562    7.9867    2.1316 H         1 <1>         0.0347 
     30 H12        12.8493   13.6954    2.3975 H         1 <1>         0.0683 
     31 H13        13.3981   12.1849    1.6244 H         1 <1>         0.0683 
@<TRIPOS>BOND
     1    1    2 ar   
     2    2    3 ar   
     3    4    3 ar   
     4    5    4 ar   
     5    6    5 ar   
     6    6    1 ar   
     7    7    8 am   
     8   18    7 1    
     9    8    9 2    
    10    8   10 1    
    11   10   11 1    
    12   11   12 1    
    13   12   13 2    
    14   14   13 1    
    15   15   14 1    
    16   11   15 1    
    17   13   16 1    
    18   14   17 2    
    19    6   18 1    
    20    1   19 1    
    21    2   20 1    
    22    3   21 1    
    23    4   22 1    
    24    5   23 1    
    25    7   24 1    
    26   11   25 1    
    27   12   26 1    
    28   16   27 1    
    29   16   28 1    
    30   16   29 1    
    31   18   30 1    
    32   18   31 1    
@<TRIPOS>SUBSTRUCTURE
     1 ****        2 TEMP              0 ****  ****    0 ROOT 
@<TRIPOS>NORMAL
@<TRIPOS>FF_PBC
FORCE_FIELD_SETUP_FEATURE Force Field Setup information
v1.0  0 0.000000 0.000000 0.000000 0.000000 0.000000 0.000000 NONE 0 0 0 0 1 0 0 0 0 0 0 0 0
