#	Name:			PISM00754.1
#	Creating user name:	baoopengkun
#	Creation time:		Wed Jan 02 12:00:41 2019

#	Modifying user name:	baoopengkun
#	Modification time:	Wed Jan 02 12:10:56 2019

@<TRIPOS>MOLECULE
PISM00754.1
   41    43     1     1     0
SMALL
GAST_HUCK


@<TRIPOS>ATOM
      1 C1          3.7140   -1.9219    8.8761 C.ar      1 <1>        -0.0365 
      2 C2          5.0344   -2.3628    8.7165 C.ar      1 <1>        -0.0521 
      3 C3          5.5722   -2.5884    7.4396 C.ar      1 <1>        -0.0521 
      4 C4          4.8058   -2.3776    6.2857 C.ar      1 <1>        -0.0365 
      5 C5          3.4942   -1.9376    6.4615 C.ar      1 <1>         0.0769 
      6 C6          2.9661   -1.7193    7.7169 C.ar      1 <1>         0.0769 
      7 C7          1.5513   -1.2678    7.4676 C.2       1 <1>         0.2524 
      8 O8          0.8043   -1.0173    8.3974 O.2       1 <1>        -0.3565 
      9 N9          1.3214   -1.2272    6.1733 N.pl3     1 <1>        -0.1468 
     10 C10         2.3864   -1.6029    5.4962 C.2       1 <1>         0.2524 
     11 O11         2.5961   -1.7027    4.3014 O.2       1 <1>        -0.3565 
     12 C12         0.1521   -0.8573    5.6765 C.2       1 <1>         0.1754 
     13 C13        -0.9117   -0.3696    6.5865 C.2       1 <1>         0.2659 
     14 O14        -1.9667   -0.9845    6.6353 O.2       1 <1>        -0.3725 
     15 O15        -0.7113    0.7464    7.3047 O.3       1 <1>        -0.2845 
     16 C16        -1.7983    1.0732    8.1917 C.3       1 <1>         0.0638 
     17 C17        -0.2708   -0.8429    4.3969 C.2       1 <1>         0.0966 
     18 O18         0.5003   -1.2593    3.3889 O.3       1 <1>        -0.2778 
     19 C19        -0.1106   -1.1761    2.0914 C.3       1 <1>         0.2433 
     20 C20         0.9453   -1.5124    1.0683 C.2       1 <1>         0.0154 
     21 C21         1.2075   -0.4787    0.2708 C.2       1 <1>         0.0196 
     22 C22         0.2998    0.5485    0.7735 C.2       1 <1>         0.2324 
     23 O23        -0.4732    0.1878    1.7932 O.3       1 <1>        -0.2333 
     24 O24         0.2422    1.6664    0.2911 O.2       1 <1>        -0.3822 
     25 C25         2.1895   -0.3831   -0.8651 C.3       1 <1>        -0.0421 
     26 H1          3.2838   -1.7432    9.8562 H         1 <1>         0.0683 
     27 H2          5.6499   -2.5321    9.5951 H         1 <1>         0.0663 
     28 H3          6.5981   -2.9315    7.3430 H         1 <1>         0.0663 
     29 H4          5.2085   -2.5471    5.2924 H         1 <1>         0.0683 
     30 H5         -1.5273    1.9911    8.7333 H         1 <1>         0.0574 
     31 H6         -1.9615    0.2702    8.9286 H         1 <1>         0.0574 
     32 H7         -2.7311    1.2590    7.6355 H         1 <1>         0.0574 
     33 H8         -1.2815   -0.4823    4.1772 H         1 <1>         0.0970 
     34 H9         -0.9813   -1.8455    1.9907 H         1 <1>         0.1231 
     35 C35         1.5630   -2.8868    1.0574 C.3       1 <1>        -0.0223 
     36 H11         1.9468   -1.1322   -1.6333 H         1 <1>         0.0303 
     37 H12         3.2086   -0.5626   -0.4913 H         1 <1>         0.0303 
     38 H13         2.1494    0.6179   -1.3199 H         1 <1>         0.0303 
     39 H10         2.0454   -3.0807    2.0270 H         1 <1>         0.0429 
     40 H14         2.3198   -2.9803    0.2648 H         1 <1>         0.0429 
     41 H15         0.7820   -3.6431    0.8898 H         1 <1>         0.0429 
@<TRIPOS>BOND
     1    2    1 ar   
     2    2    3 ar   
     3    3    4 ar   
     4    4    5 ar   
     5    5    6 ar   
     6    1    6 ar   
     7    6    7 1    
     8    7    8 2    
     9    7    9 1    
    10    9   10 1    
    11    5   10 1    
    12   10   11 2    
    13    9   12 1    
    14   12   13 1    
    15   13   14 2    
    16   13   15 1    
    17   15   16 1    
    18   12   17 2    
    19   17   18 1    
    20   18   19 1    
    21   19   20 1    
    22   20   21 2    
    23   21   22 1    
    24   22   23 1    
    25   19   23 1    
    26   22   24 2    
    27   21   25 1    
    28    1   26 1    
    29    2   27 1    
    30    3   28 1    
    31    4   29 1    
    32   16   30 1    
    33   16   31 1    
    34   16   32 1    
    35   17   33 1    
    36   19   34 1    
    37   20   35 1    
    38   25   36 1    
    39   25   37 1    
    40   25   38 1    
    41   35   39 1    
    42   35   40 1    
    43   35   41 1    
@<TRIPOS>SUBSTRUCTURE
     1 ****        2 TEMP              0 ****  ****    0 ROOT 
@<TRIPOS>NORMAL
@<TRIPOS>FF_PBC
FORCE_FIELD_SETUP_FEATURE Force Field Setup information
v1.0  0 0.000000 0.000000 0.000000 0.000000 0.000000 0.000000 NONE 0 0 0 0 1 0 0 0 0 0 0 0 0
