#	Name:			PISM01192
#	Creating user name:	baoopengkun
#	Creation time:		Tue Dec 18 22:19:36 2018

#	Modifying user name:	baoopengkun
#	Modification time:	Tue Dec 18 22:23:50 2018

@<TRIPOS>MOLECULE
PISM01192
   56    64     1     1     0
SMALL
GAST_HUCK


@<TRIPOS>ATOM
      1 C1         18.1389   20.2613  -36.4038 C.3       1 <1>         0.0404 
      2 S2         18.6603   19.0451  -35.1611 S.3       1 <1>        -0.0612 
      3 C3         18.6269   20.4049  -34.0244 C.2       1 <1>         0.0853 
      4 N4         17.9684   21.4549  -34.3082 N.2       1 <1>        -0.3350 
      5 C5         17.3250   21.3016  -35.5966 C.3       1 <1>         0.0985 
      6 C6         17.2113   22.6154  -36.3288 C.2       1 <1>         0.1877 
      7 O7         16.8674   22.6734  -37.6298 O.3       1 <1>        -0.2157 
      8 C8         16.8622   24.0033  -37.8866 C.2       1 <1>         0.1355 
      9 C9         17.1739   24.8085  -36.8668 C.2       1 <1>         0.0838 
     10 N10        17.3877   23.7854  -35.8886 N.2       1 <1>        -0.3146 
     11 C11        16.5070   24.4125  -39.2898 C.3       1 <1>         0.0075 
     12 C12        19.3588   20.3334  -32.7466 C.2       1 <1>         0.0868 
     13 C13        17.2977   26.2623  -36.6576 C.2       1 <1>         0.1784 
     14 O14        16.9939   27.1877  -37.5893 O.3       1 <1>        -0.2244 
     15 C15        17.2550   28.3575  -36.9538 C.2       1 <1>         0.1376 
     16 C16        17.7025   28.2657  -35.6985 C.2       1 <1>         0.0905 
     17 N17        17.6911   26.8387  -35.6077 N.2       1 <1>        -0.3202 
     18 C18        17.0144   29.6209  -37.7327 C.3       1 <1>         0.0100 
     19 C19        18.1210   29.1702  -34.6154 C.2       1 <1>         0.1847 
     20 N20        18.5872   28.8094  -33.5044 N.2       1 <1>        -0.3087 
     21 C21        18.9142   29.8940  -32.6363 C.2       1 <1>         0.0913 
     22 C22        18.5501   30.8897  -33.4492 C.2       1 <1>         0.1176 
     23 O23        18.0629   30.5167  -34.6648 O.3       1 <1>        -0.2320 
     24 C24        19.4767   29.6937  -31.2934 C.2       1 <1>         0.1948 
     25 N25        19.7563   28.5727  -30.7995 N.2       1 <1>        -0.3003 
     26 O26        19.7720   30.6700  -30.4124 O.3       1 <1>        -0.2270 
     27 C27        20.2596   29.9727  -29.3461 C.2       1 <1>         0.1216 
     28 C28        20.2963   28.6432  -29.4822 C.2       1 <1>         0.0969 
     29 C29        20.6913   27.4379  -28.7401 C.2       1 <1>         0.1962 
     30 N30        20.5903   26.2657  -29.1835 N.2       1 <1>        -0.3001 
     31 C31        21.0553   25.2681  -28.2778 C.2       1 <1>         0.0970 
     32 C32        21.4145   26.0861  -27.2828 C.2       1 <1>         0.1217 
     33 O33        21.2171   27.4178  -27.5001 O.3       1 <1>        -0.2268 
     34 C34        21.0405   23.8314  -28.5910 C.2       1 <1>         0.1963 
     35 N35        20.5769   23.3199  -29.6445 N.2       1 <1>        -0.2999 
     36 C36        20.7138   21.9004  -29.6999 C.2       1 <1>         0.0981 
     37 C37        21.3131   21.7346  -28.5167 C.2       1 <1>         0.1221 
     38 O38        21.5348   22.8657  -27.7934 O.3       1 <1>        -0.2266 
     39 C39        20.2748   21.0407  -30.8116 C.2       1 <1>         0.2005 
     40 O40        20.5485   19.7251  -30.8922 O.3       1 <1>        -0.2183 
     41 C41        19.9816   19.3635  -32.0710 C.2       1 <1>         0.1322 
     42 N42        19.6112   21.3960  -31.8244 N.2       1 <1>        -0.2963 
     43 H1         17.5579   19.8007  -37.2176 H         1 <1>         0.0448 
     44 H2         19.0454   20.7306  -36.8171 H         1 <1>         0.0448 
     45 H3         16.3028   20.9326  -35.4140 H         1 <1>         0.0637 
     46 H4         15.4931   24.0566  -39.5245 H         1 <1>         0.0449 
     47 H5         17.2191   23.9522  -39.9904 H         1 <1>         0.0449 
     48 H6         16.5385   25.5033  -39.4201 H         1 <1>         0.0449 
     49 H7         15.9562   29.6675  -38.0289 H         1 <1>         0.0461 
     50 H8         17.6405   29.6137  -38.6370 H         1 <1>         0.0461 
     51 H9         17.2576   30.5138  -37.1387 H         1 <1>         0.0461 
     52 H10        18.6413   31.9334  -33.1531 H         1 <1>         0.1093 
     53 H11        20.6011   30.4643  -28.4366 H         1 <1>         0.1119 
     54 H12        21.8402   25.7059  -26.3556 H         1 <1>         0.1120 
     55 H13        21.6055   20.7496  -28.1564 H         1 <1>         0.1122 
     56 H14        20.0300   18.3417  -32.4437 H         1 <1>         0.1225 
@<TRIPOS>BOND
     1    2    1 1    
     2    2    3 1    
     3    3    4 2    
     4    4    5 1    
     5    1    5 1    
     6    5    6 1    
     7    6    7 1    
     8    7    8 1    
     9    9    8 2    
    10   10    9 1    
    11    6   10 2    
    12    8   11 1    
    13    3   12 1    
    14    9   13 1    
    15   13   14 1    
    16   14   15 1    
    17   16   15 2    
    18   17   16 1    
    19   13   17 2    
    20   15   18 1    
    21   16   19 1    
    22   19   20 2    
    23   20   21 1    
    24   22   21 2    
    25   23   22 1    
    26   19   23 1    
    27   21   24 1    
    28   24   25 2    
    29   24   26 1    
    30   26   27 1    
    31   27   28 2    
    32   25   28 1    
    33   28   29 1    
    34   29   30 2    
    35   30   31 1    
    36   32   31 2    
    37   33   32 1    
    38   29   33 1    
    39   31   34 1    
    40   34   35 2    
    41   37   36 2    
    42   35   36 1    
    43   38   37 1    
    44   34   38 1    
    45   36   39 1    
    46   39   40 1    
    47   40   41 1    
    48   12   41 2    
    49   12   42 1    
    50   39   42 2    
    51    1   43 1    
    52    1   44 1    
    53    5   45 1    
    54   11   46 1    
    55   11   47 1    
    56   11   48 1    
    57   18   49 1    
    58   18   50 1    
    59   18   51 1    
    60   22   52 1    
    61   27   53 1    
    62   32   54 1    
    63   37   55 1    
    64   41   56 1    
@<TRIPOS>SUBSTRUCTURE
     1 ****        2 TEMP              0 ****  ****    0 ROOT 
@<TRIPOS>NORMAL
@<TRIPOS>FF_PBC
FORCE_FIELD_SETUP_FEATURE Force Field Setup information
v1.0  0 0.000000 0.000000 0.000000 0.000000 0.000000 0.000000 NONE 0 0 0 0 1 0 0 0 0 0 0 0 0
