#	Name:			PISM00879
#	Creating user name:	baoopengkun
#	Creation time:		Fri Dec 14 00:11:37 2018

#	Modifying user name:	baoopengkun
#	Modification time:	Fri Dec 14 00:13:58 2018

@<TRIPOS>MOLECULE
PISM00879
   28    30     1     1     0
SMALL
GAST_HUCK


@<TRIPOS>ATOM
      1 C1          9.7327   -1.4578   -1.4232 C.ar      1 <1>        -0.0400 
      2 C2         11.1254   -1.5846   -1.3783 C.ar      1 <1>        -0.0561 
      3 C3         11.9458   -0.4642   -1.5575 C.ar      1 <1>        -0.0557 
      4 C4         11.3818    0.7956   -1.7857 C.ar      1 <1>        -0.0290 
      5 C5          9.9920    0.9190   -1.8316 C.ar      1 <1>         0.1335 
      6 C6          9.1730   -0.1983   -1.6501 C.ar      1 <1>         0.0789 
      7 S7          9.1412    2.4493   -2.1126 S.o2      1 <1>         0.1003 
      8 N8          7.4078    1.3750   -1.9711 N.am      1 <1>        -0.0938 
      9 C9          7.6913    0.0897   -1.7215 C.2       1 <1>         0.2346 
     10 O10         6.8469   -0.7750   -1.5597 O.2       1 <1>        -0.3824 
     11 O11         9.3472    2.8985   -3.4742 O.2       1 <1>        -0.1444 
     12 O12         9.2808    3.3227   -0.9651 O.2       1 <1>        -0.1444 
     13 C13         6.0482    1.8703   -2.0392 C.3       1 <1>         0.2217 
     14 C14         5.5882    2.1656   -0.6331 C.2       1 <1>        -0.0085 
     15 C15         5.3996    3.4736   -0.4702 C.2       1 <1>         0.0285 
     16 C16         5.7141    4.0308   -1.7814 C.2       1 <1>         0.2489 
     17 O17         6.0595    3.1465   -2.7091 O.3       1 <1>        -0.2369 
     18 C18         4.9629    4.2006    0.7721 C.3       1 <1>        -0.0323 
     19 O19         5.6560    5.2249   -2.0190 O.2       1 <1>        -0.3691 
     20 H1          9.0928   -2.3236   -1.2843 H         1 <1>         0.0670 
     21 H2         11.5725   -2.5588   -1.2032 H         1 <1>         0.0629 
     22 H3         13.0258   -0.5730   -1.5194 H         1 <1>         0.0653 
     23 H4         12.0091    1.6698   -1.9259 H         1 <1>         0.0649 
     24 H5          5.3751    1.1697   -2.5604 H         1 <1>         0.1119 
     25 H6          5.4429    1.4107    0.1390 H         1 <1>         0.0699 
     26 H7          4.9081    5.2832    0.5828 H         1 <1>         0.0347 
     27 H8          5.6847    4.0161    1.5816 H         1 <1>         0.0347 
     28 H9          3.9708    3.8415    1.0834 H         1 <1>         0.0347 
@<TRIPOS>BOND
     1    2    1 ar   
     2    2    3 ar   
     3    3    4 ar   
     4    4    5 ar   
     5    5    6 ar   
     6    1    6 ar   
     7    5    7 1    
     8    7    8 1    
     9    8    9 am   
    10    6    9 1    
    11    9   10 2    
    12    7   11 2    
    13    7   12 2    
    14    8   13 1    
    15   13   14 1    
    16   14   15 2    
    17   15   16 1    
    18   16   17 1    
    19   13   17 1    
    20   15   18 1    
    21   16   19 2    
    22    1   20 1    
    23    2   21 1    
    24    3   22 1    
    25    4   23 1    
    26   13   24 1    
    27   14   25 1    
    28   18   26 1    
    29   18   27 1    
    30   18   28 1    
@<TRIPOS>SUBSTRUCTURE
     1 ****        2 TEMP              0 ****  ****    0 ROOT 
@<TRIPOS>NORMAL
@<TRIPOS>FF_PBC
FORCE_FIELD_SETUP_FEATURE Force Field Setup information
v1.0  0 0.000000 0.000000 0.000000 0.000000 0.000000 0.000000 NONE 0 0 0 0 1 0 0 0 0 0 0 0 0
