#	Name:			PISM00073
#	Creating user name:	baoopengkun
#	Creation time:		Thu Dec 27 12:03:12 2018

#	Modifying user name:	baoopengkun
#	Modification time:	Thu Dec 27 12:05:16 2018

@<TRIPOS>MOLECULE
PISM00073
   38    40     1     1     0
SMALL
GAST_HUCK


@<TRIPOS>ATOM
      1 C1        -11.0476   21.8063   -3.3334 C.3       1 <1>        -0.0145 
      2 C2        -11.2216   20.2974   -3.5014 C.ar      1 <1>         0.0150 
      3 C3        -12.4929   19.7352   -3.6432 C.ar      1 <1>        -0.0269 
      4 C4        -12.6421   18.3501   -3.7902 C.ar      1 <1>        -0.0093 
      5 C5        -11.4896   17.5479   -3.7783 C.ar      1 <1>         0.0862 
      6 C6        -10.2423   18.1676   -3.6414 C.ar      1 <1>         0.0900 
      7 N7        -10.1337   19.5038   -3.5123 N.ar      1 <1>        -0.2979 
      8 C8        -14.0543   17.7672   -3.9591 C.3       1 <1>        -0.0191 
      9 C9        -11.4800   16.1509   -3.8939 C.ar      1 <1>         0.1925 
     10 O10       -12.6623   15.4261   -4.0169 O.3       1 <1>        -0.2957 
     11 N11       -10.3171   15.4675   -3.8879 N.ar      1 <1>        -0.2292 
     12 C12        -9.1375   16.1050   -3.7676 C.ar      1 <1>         0.1440 
     13 N13        -9.1067   17.4440   -3.6343 N.ar      1 <1>        -0.2726 
     14 S14        -7.6264   15.1828   -3.7690 S.3       1 <1>        -0.0385 
     15 C15        -6.5212   16.5023   -4.3737 C.3       1 <1>         0.0888 
     16 C16        -5.1204   15.9906   -4.5958 C.2       1 <1>         0.1458 
     17 O17        -4.8575   14.8351   -4.3031 O.2       1 <1>        -0.3773 
     18 C18        -4.0269   16.8699   -5.1715 C.ar      1 <1>         0.0337 
     19 C19        -4.2498   18.2178   -5.4832 C.ar      1 <1>        -0.0430 
     20 C20        -3.2263   19.0004   -6.0265 C.ar      1 <1>        -0.0559 
     21 C21        -1.9649   18.4456   -6.2567 C.ar      1 <1>        -0.0572 
     22 C22        -1.7305   17.1053   -5.9399 C.ar      1 <1>        -0.0559 
     23 C23        -2.7573   16.3248   -5.4005 C.ar      1 <1>        -0.0430 
     24 H1        -11.4434   22.3249   -4.2191 H         1 <1>         0.0443 
     25 H2         -9.9803   22.0493   -3.2210 H         1 <1>         0.0443 
     26 H3        -11.5893   22.1437   -2.4373 H         1 <1>         0.0443 
     27 H4        -13.3587   20.3886   -3.6372 H         1 <1>         0.0551 
     28 H5        -14.1186   17.2212   -4.9121 H         1 <1>         0.0447 
     29 H6        -14.8275   18.5498   -3.9708 H         1 <1>         0.0447 
     30 H7        -14.2773   17.0881   -3.1228 H         1 <1>         0.0447 
     31 H8        -12.4844   14.4940   -4.0768 H         1 <1>         0.2654 
     32 H9         -6.4997   17.3096   -3.6268 H         1 <1>         0.0634 
     33 H10        -6.9303   16.8813   -5.3219 H         1 <1>         0.0634 
     34 H11        -5.2156   18.6782   -5.3091 H         1 <1>         0.0672 
     35 H12        -3.4107   20.0425   -6.2705 H         1 <1>         0.0630 
     36 H13        -1.1704   19.0530   -6.6796 H         1 <1>         0.0655 
     37 H14        -0.7507   16.6702   -6.1131 H         1 <1>         0.0630 
     38 H15        -2.5592   15.2849   -5.1600 H         1 <1>         0.0672 
@<TRIPOS>BOND
     1    2    1 1    
     2    2    3 ar   
     3    3    4 ar   
     4    4    5 ar   
     5    5    6 ar   
     6    6    7 ar   
     7    2    7 ar   
     8    4    8 1    
     9    5    9 ar   
    10    9   10 1    
    11    9   11 ar   
    12   11   12 ar   
    13   12   13 ar   
    14    6   13 ar   
    15   12   14 1    
    16   14   15 1    
    17   15   16 1    
    18   16   17 2    
    19   16   18 1    
    20   18   19 ar   
    21   19   20 ar   
    22   20   21 ar   
    23   21   22 ar   
    24   22   23 ar   
    25   18   23 ar   
    26    1   24 1    
    27    1   25 1    
    28    1   26 1    
    29    3   27 1    
    30    8   28 1    
    31    8   29 1    
    32    8   30 1    
    33   10   31 1    
    34   15   32 1    
    35   15   33 1    
    36   19   34 1    
    37   20   35 1    
    38   21   36 1    
    39   22   37 1    
    40   23   38 1    
@<TRIPOS>SUBSTRUCTURE
     1 ****        2 TEMP              0 ****  ****    0 ROOT 
@<TRIPOS>NORMAL
@<TRIPOS>FF_PBC
FORCE_FIELD_SETUP_FEATURE Force Field Setup information
v1.0  0 0.000000 0.000000 0.000000 0.000000 0.000000 0.000000 NONE 0 0 0 0 1 0 0 0 0 0 0 0 0
