#	Name:			PISM00633.1
#	Creating user name:	baoopengkun
#	Creation time:		Sat Dec 08 17:33:19 2018

#	Modifying user name:	baoopengkun
#	Modification time:	Sat Dec 08 17:33:49 2018

@<TRIPOS>MOLECULE
PISM00633.1
   52    55     1     2     0
SMALL
GAST_HUCK


@<TRIPOS>ATOM
      1 C1         -1.0419   15.2966   -0.0991 C.ar      1 PHENYL     -0.0348 
      2 C2         -0.1475   15.2894    0.9743 C.ar      1 PHENYL     -0.0183 
      3 C3         -0.0385   16.4134    1.7964 C.ar      1 PHENYL      0.0716 
      4 C4         -0.8359   17.5339    1.5504 C.ar      1 PHENYL     -0.0038 
      5 C5         -1.7402   17.5370    0.4846 C.ar      1 PHENYL      0.0705 
      6 C6         -1.8240   16.4268   -0.3641 C.ar      1 PHENYL      0.0199 
      7 C7         -2.7635   16.4093   -1.5789 C.3       1 PHENYL      0.1912 
      8 C8         -4.1530   15.8899   -1.1497 C.3       1 PHENYL      0.1066 
      9 N9         -4.0069   14.7045   -0.3162 N.pl3     1 PHENYL     -0.1816 
     10 N10        -3.9065   13.4158   -0.7464 N.2       1 PHENYL     -0.1908 
     11 C11        -3.7986   12.5719    0.2115 C.2       1 PHENYL      0.0618 
     12 N12        -3.8493   13.4480    1.3494 N.2       1 PHENYL     -0.2870 
     13 C13        -3.9733   14.6406    0.9800 C.2       1 PHENYL      0.1270 
     14 O14        -2.8623   17.6626   -2.2651 O.3       1 PHENYL     -0.3824 
     15 C15        -1.6283   17.8599   -2.9644 C.3       1 PHENYL      0.0669 
     16 C16        -1.1486   16.4086   -3.2258 C.3       1 PHENYL      0.0997 
     17 O17        -2.2118   15.6357   -2.6506 O.3       1 PHENYL     -0.3768 
     18 Cl18        1.0935   16.4170    3.1331 Cl        1 PHENYL     -0.0423 
     19 H1         -1.1307   14.4148   -0.7276 H         1 PHENYL      0.0847 
     20 H2          0.4615   14.4127    1.1706 H         1 PHENYL      0.0703 
     21 H3         -0.7536   18.4049    2.1918 H         1 PHENYL      0.0708 
     22 Cl22       -2.7613   18.9408    0.2435 Cl        1 PHENYL     -0.0423 
     23 H5         -4.7361   15.6438   -2.0495 H         1 PHENYL      0.0592 
     24 H6         -4.6782   16.6836   -0.5975 H         1 PHENYL      0.0592 
     25 H7         -3.6977   11.4884    0.1713 H         1 PHENYL      0.0863 
     26 H8         -4.0390   15.4853    1.6647 H         1 PHENYL      0.1361 
     27 H11        -0.9206   18.4066   -2.3200 H         1 PHENYL      0.0575 
     28 C28        -0.9705   16.0588   -4.7225 C.3       1 PHENYL      0.0952 
     29 H9         -1.8159   18.4460   -3.8766 H         1 PHENYL      0.0575 
     30 H10        -0.2063   16.2089   -2.6875 H         1 PHENYL      0.0635 
     31 C          -0.0535   14.1538   -6.0508 C.ar      1 PHENYL      0.1201 
     32 C           0.6440   12.9387   -6.0379 C.ar      1 PHENYL      0.1229 
     33 C           0.9775   12.3160   -7.2489 C.ar      1 PHENYL     -0.0412 
     34 O34        -0.3798   14.7509   -4.8229 O.3       1 PHENYL     -0.3192 
     35 H15        -0.3029   16.7999   -5.1900 H         1 PHENYL      0.0635 
     36 H16        -1.9632   16.0870   -5.1988 H         1 PHENYL      0.0635 
     37 C           0.6192   12.9028   -8.4653 C.ar      1 PHENYL     -0.0819 
     38 C          -0.0724   14.1155   -8.4779 C.ar      1 PHENYL     -0.0819 
     39 C          -0.4073   14.7404   -7.2738 C.ar      1 PHENYL     -0.0414 
     40 O40         0.9916   12.3791   -4.7971 O.3       1 PHENYL     -0.3083 
     41 C41         1.6568   11.1120   -4.6713 C.3       1 PHENYL      0.0963 
     42 C42         1.8636   10.8602   -3.1990 C.2       1 PHENYL     -0.0596 
     43 C43         1.4647    9.7443   -2.5754 C.2       1 PHENYL     -0.1150 
     44 H4          1.5152   11.3763   -7.2755 H         1 PHENYL      0.0509 
     45 H12         0.8780   12.4171   -9.4016 H         1 PHENYL      0.0495 
     46 H13        -0.3496   14.5714   -9.4239 H         1 PHENYL      0.0495 
     47 H14        -0.9430   15.6805   -7.3185 H         1 PHENYL      0.0509 
     48 H17         2.6467   11.1463   -5.1525 H         1 PHENYL      0.0791 
     49 H18         1.0481   10.3157   -5.1285 H         1 PHENYL      0.0791 
     50 H19         2.3667   11.6398   -2.6245 H         1 PHENYL      0.0698 
     51 H20         1.6394    9.6159   -1.5068 H         1 PHENYL      0.0291 
     52 H21         0.9593    8.9385   -3.1069 H         1 PHENYL      0.0291 
@<TRIPOS>BOND
     1    1    2 ar   
     2    2    3 ar   
     3    4    3 ar   
     4    5    4 ar   
     5    6    5 ar   
     6    6    1 ar   
     7    7    6 1    
     8    7    8 1    
     9    8    9 1    
    10    9   10 1    
    11   10   11 2    
    12   12   11 1    
    13   13   12 2    
    14    9   13 1    
    15    7   14 1    
    16   15   14 1    
    17   16   15 1    
    18   16   17 1    
    19   17    7 1    
    20    3   18 1    
    21    1   19 1    
    22    2   20 1    
    23    4   21 1    
    24    5   22 1    
    25    8   23 1    
    26    8   24 1    
    27   11   25 1    
    28   13   26 1    
    29   15   27 1    
    30   28   16 1    
    31   15   29 1    
    32   16   30 1    
    33   31   32 ar   
    34   31   39 ar   
    35   39   38 ar   
    36   34   28 1    
    37   28   35 1    
    38   28   36 1    
    39   38   37 ar   
    40   33   37 ar   
    41   32   33 ar   
    42   31   34 1    
    43   32   40 1    
    44   40   41 1    
    45   41   42 1    
    46   42   43 2    
    47   33   44 1    
    48   37   45 1    
    49   38   46 1    
    50   39   47 1    
    51   41   48 1    
    52   41   49 1    
    53   42   50 1    
    54   43   51 1    
    55   43   52 1    
@<TRIPOS>SUBSTRUCTURE
     1 PHENYL     31 PERM              0 ****  ****    0 ROOT 
@<TRIPOS>NORMAL
@<TRIPOS>FF_PBC
FORCE_FIELD_SETUP_FEATURE Force Field Setup information
v1.0  0 0.000000 0.000000 0.000000 0.000000 0.000000 0.000000 NONE 0 0 0 0 1 0 0 0 0 0 0 0 0
@<TRIPOS>RENDERING_ATTRS
ANTIALIASED_LINES 
*
