#	Name:			PISM00760
#	Creating user name:	baoopengkun
#	Creation time:		Fri Jan 04 17:32:16 2019

#	Modifying user name:	baoopengkun
#	Modification time:	Fri Jan 04 17:32:51 2019

@<TRIPOS>MOLECULE
PISM00760
   33    34     1     2     0
SMALL
GAST_HUCK


@<TRIPOS>ATOM
      1 C1          3.0166    5.2690   -5.7816 C.2       1 <1>         0.1081 
      2 C2          3.3601    5.9826   -7.0671 C.3       1 <1>         0.0245 
      3 C3          3.1283    5.0667   -8.2974 C.3       1 <1>        -0.0349 
      4 C4          1.6010    3.4871   -7.0269 C.3       1 <1>        -0.0269 
      5 C5          2.1216    4.0902   -5.7415 C.2       1 <1>         0.0184 
      6 O6          3.5014    5.6812   -4.7400 O.2       1 <1>        -0.3998 
      7 C7          1.7715    3.5479   -4.5659 C.2       1 <1>         0.0764 
      8 O8          0.9630    2.4764   -4.5431 O.3       1 <1>        -0.2718 
      9 C9          0.6597    2.0119   -3.2171 C.3       1 <1>         0.2384 
     10 O10         1.8691    1.6258   -2.5320 O.3       1 <1>        -0.2305 
     11 C11         1.7584    0.3178   -2.3360 C.2       1 <1>         0.2495 
     12 C12         0.5215   -0.2868   -2.8182 C.2       1 <1>         0.0293 
     13 C13        -0.1420    0.7404   -3.3449 C.2       1 <1>        -0.0010 
     14 C14         0.0948   -1.7273   -2.7420 C.3       1 <1>        -0.0323 
     15 O15         2.6330   -0.3270   -1.7839 O.2       1 <1>        -0.3691 
     16 C16         1.7074    4.4555   -8.2320 C.3       1 <1>        -0.0462 
     17 C17         4.8199    6.5130   -7.0486 C.3       1 <1>        -0.0478 
     18 H1          2.6850    6.8527   -7.1295 H         1 <1>         0.0508 
     19 H2          3.8760    4.2571   -8.3156 H         1 <1>         0.0292 
     20 H3          3.2368    5.6574   -9.2225 H         1 <1>         0.0292 
     21 H4          0.5475    3.1794   -6.9210 H         1 <1>         0.0353 
     22 H5          2.2020    2.5858   -7.2285 H         1 <1>         0.0353 
     23 H6          2.1585    3.9942   -3.6459 H         1 <1>         0.1073 
     24 H7          0.1004    2.7604   -2.6304 H         1 <1>         0.1210 
     25 H8         -1.1246    0.6760   -3.8105 H         1 <1>         0.0706 
     26 H9          0.8979   -2.3419   -2.3082 H         1 <1>         0.0347 
     27 H10        -0.1347   -2.1013   -3.7509 H         1 <1>         0.0347 
     28 H11        -0.8023   -1.8150   -2.1114 H         1 <1>         0.0347 
     29 H12         0.9636    5.2634   -8.1299 H         1 <1>         0.0281 
     30 H13         1.4891    3.9063   -9.1638 H         1 <1>         0.0281 
     31 H14         4.9655    7.2215   -6.2179 H         1 <1>         0.0255 
     32 H15         5.0532    7.0330   -7.9907 H         1 <1>         0.0255 
     33 H16         5.5244    5.6765   -6.9223 H         1 <1>         0.0255 
@<TRIPOS>BOND
     1    1    2 1    
     2    2    3 1    
     3    5    4 1    
     4    4   16 1    
     5    1    5 1    
     6    1    6 2    
     7    5    7 2    
     8    7    8 1    
     9    8    9 1    
    10    9   10 1    
    11   10   11 1    
    12   11   12 1    
    13   12   13 2    
    14    9   13 1    
    15   12   14 1    
    16   11   15 2    
    17    3   16 1    
    18    2   17 1    
    19    2   18 1    
    20    3   19 1    
    21    3   20 1    
    22    4   21 1    
    23    4   22 1    
    24    7   23 1    
    25    9   24 1    
    26   13   25 1    
    27   14   26 1    
    28   14   27 1    
    29   14   28 1    
    30   16   29 1    
    31   16   30 1    
    32   17   31 1    
    33   17   32 1    
    34   17   33 1    
@<TRIPOS>SUBSTRUCTURE
     1 ****        2 TEMP              0 ****  ****    0 ROOT 
@<TRIPOS>NORMAL
@<TRIPOS>FF_PBC
FORCE_FIELD_SETUP_FEATURE Force Field Setup information
v1.0  0 0.000000 0.000000 0.000000 0.000000 0.000000 0.000000 NONE 0 0 0 0 1 0 0 0 0 0 0 0 0
@<TRIPOS>RENDERING_ATTRS
ANTIALIASED_LINES 
*
