#	Name:			PISM00619
#	Creating user name:	baoopengkun
#	Creation time:		Mon Dec 10 11:13:13 2018

#	Modifying user name:	baoopengkun
#	Modification time:	Mon Dec 10 11:13:26 2018

@<TRIPOS>MOLECULE
PISM00619
   52    55     1     2     0
SMALL
GAST_HUCK


@<TRIPOS>ATOM
      1 C1         13.5724    1.5474  -28.4508 C.ar      1 <1>        -0.0348 
      2 C2         12.9410    0.4412  -27.8756 C.ar      1 <1>        -0.0180 
      3 C3         11.8768   -0.1777  -28.5367 C.ar      1 <1>         0.0714 
      4 C4         11.4321    0.3220  -29.7634 C.ar      1 <1>        -0.0180 
      5 C5         12.0727    1.4199  -30.3445 C.ar      1 <1>        -0.0348 
      6 C6         13.1599    2.0200  -29.7009 C.ar      1 <1>         0.0068 
      7 C7         13.8929    3.1945  -30.3613 C.3       1 <1>         0.1921 
      8 C8         13.1571    4.5068  -30.0132 C.3       1 <1>         0.1073 
      9 N9         12.9159    4.5876  -28.5791 N.pl3     1 <1>        -0.1814 
     10 N10        13.7227    5.1728  -27.6501 N.2       1 <1>        -0.1908 
     11 C11        13.2484    5.1130  -26.4615 C.2       1 <1>         0.0618 
     12 N12        12.0109    4.4224  -26.6997 N.2       1 <1>        -0.2870 
     13 C13        11.8827    4.1594  -27.9197 C.2       1 <1>         0.1270 
     14 O14        15.2799    3.2548  -30.0009 O.3       1 <1>        -0.3814 
     15 C15        15.9246    2.1890  -30.7026 C.3       1 <1>         0.0672 
     16 C16        15.1557    2.2100  -32.0465 C.3       1 <1>         0.1000 
     17 O17        13.9946    3.0168  -31.7819 O.3       1 <1>        -0.3758 
     18 C18        14.8050    0.7883  -32.5552 C.3       1 <1>         0.0952 
     19 O19        14.0657    0.0689  -31.5549 O.3       1 <1>        -0.3192 
     20 C20        13.7955   -1.2621  -31.8664 C.ar      1 <1>         0.1201 
     21 C21        12.5491   -1.6065  -32.3942 C.ar      1 <1>        -0.0414 
     22 C22        12.2591   -2.9421  -32.6825 C.ar      1 <1>        -0.0819 
     23 C23        13.2235   -3.9259  -32.4481 C.ar      1 <1>        -0.0819 
     24 C24        14.4762   -3.5781  -31.9320 C.ar      1 <1>        -0.0412 
     25 C25        14.7720   -2.2388  -31.6431 C.ar      1 <1>         0.1229 
     26 O26        16.0182   -1.8379  -31.1360 O.3       1 <1>        -0.3083 
     27 C27        17.1027   -2.7546  -30.9239 C.3       1 <1>         0.0963 
     28 C28        18.2531   -1.9498  -30.3739 C.2       1 <1>        -0.0596 
     29 Cl29       11.0996   -1.5783  -27.8283 Cl        1 <1>        -0.0420 
     30 H1         14.3837    2.0418  -27.9250 H         1 <1>         0.0849 
     31 H2         13.2756    0.0622  -26.9154 H         1 <1>         0.0703 
     32 H3         10.5906   -0.1459  -30.2637 H         1 <1>         0.0703 
     33 H4         11.7309    1.8026  -31.3009 H         1 <1>         0.0849 
     34 H5         12.2038    4.5426  -30.5617 H         1 <1>         0.0595 
     35 H6         13.7777    5.3566  -30.3334 H         1 <1>         0.0595 
     36 H7         13.6687    5.4858  -25.5287 H         1 <1>         0.0863 
     37 H8         11.0213    3.6443  -28.3431 H         1 <1>         0.1361 
     38 H9         15.7759    1.2436  -30.1572 H         1 <1>         0.0576 
     39 H10        17.0052    2.3717  -30.8062 H         1 <1>         0.0576 
     40 H11        15.7352    2.7524  -32.8120 H         1 <1>         0.0635 
     41 H12        15.7442    0.2605  -32.7884 H         1 <1>         0.0635 
     42 H13        14.2007    0.8712  -33.4723 H         1 <1>         0.0635 
     43 H14        11.8112   -0.8332  -32.5789 H         1 <1>         0.0509 
     44 H15        11.2888   -3.2143  -33.0870 H         1 <1>         0.0495 
     45 H16        12.9977   -4.9652  -32.6688 H         1 <1>         0.0495 
     46 H17        15.1989   -4.3673  -31.7651 H         1 <1>         0.0509 
     47 H18        17.3766   -3.2466  -31.8707 H         1 <1>         0.0791 
     48 H19        16.8268   -3.5153  -30.1770 H         1 <1>         0.0791 
     49 C49        19.4716   -1.9268  -30.9286 C.2       1 <1>        -0.1150 
     50 H21        18.0663   -1.3585  -29.4758 H         1 <1>         0.0698 
     51 H20        20.2677   -1.3254  -30.4887 H         1 <1>         0.0291 
     52 H22        19.7060   -2.4999  -31.8253 H         1 <1>         0.0291 
@<TRIPOS>BOND
     1    2    1 ar   
     2    2    3 ar   
     3    3    4 ar   
     4    4    5 ar   
     5    5    6 ar   
     6    1    6 ar   
     7    6    7 1    
     8    7    8 1    
     9    8    9 1    
    10    9   10 1    
    11   10   11 2    
    12   11   12 1    
    13   12   13 2    
    14    9   13 1    
    15    7   14 1    
    16   14   15 1    
    17   15   16 1    
    18   16   17 1    
    19    7   17 1    
    20   16   18 1    
    21   18   19 1    
    22   19   20 1    
    23   20   21 ar   
    24   21   22 ar   
    25   22   23 ar   
    26   23   24 ar   
    27   24   25 ar   
    28   20   25 ar   
    29   25   26 1    
    30   26   27 1    
    31   27   28 1    
    32    3   29 1    
    33    1   30 1    
    34    2   31 1    
    35    4   32 1    
    36    5   33 1    
    37    8   34 1    
    38    8   35 1    
    39   11   36 1    
    40   13   37 1    
    41   15   38 1    
    42   15   39 1    
    43   16   40 1    
    44   18   41 1    
    45   18   42 1    
    46   21   43 1    
    47   22   44 1    
    48   23   45 1    
    49   24   46 1    
    50   27   47 1    
    51   27   48 1    
    52   28   49 2    
    53   28   50 1    
    54   49   51 1    
    55   49   52 1    
@<TRIPOS>SUBSTRUCTURE
     1 ****        2 TEMP              0 ****  ****    0 ROOT 
@<TRIPOS>NORMAL
@<TRIPOS>FF_PBC
FORCE_FIELD_SETUP_FEATURE Force Field Setup information
v1.0  0 0.000000 0.000000 0.000000 0.000000 0.000000 0.000000 NONE 0 0 0 0 1 0 0 0 0 0 0 0 0
@<TRIPOS>RENDERING_ATTRS
ANTIALIASED_LINES 
*
