#	Name:			PISM00919
#	Creating user name:	baoopengkun
#	Creation time:		Fri Dec 14 10:31:16 2018

#	Modifying user name:	baoopengkun
#	Modification time:	Fri Dec 14 10:57:29 2018

@<TRIPOS>MOLECULE
PISM00919
   37    39     1     1     0
SMALL
GAST_HUCK


@<TRIPOS>ATOM
      1 C1         22.7581    9.2344   -9.6752 C.ar      1 <1>        -0.0145 
      2 C2         22.8093    7.9203   -9.1889 C.ar      1 <1>         0.0720 
      3 C3         23.9617    7.1387   -9.3856 C.ar      1 <1>        -0.0299 
      4 C4         25.0629    7.6236  -10.1037 C.ar      1 <1>        -0.0474 
      5 C5         24.9866    8.9277  -10.5894 C.ar      1 <1>         0.0608 
      6 C6         23.8631    9.7125  -10.3775 C.ar      1 <1>         0.0637 
      7 C7         24.1597   11.0345  -11.0405 C.2       1 <1>         0.2418 
      8 N8         25.3849   10.9952  -11.5996 N.am      1 <1>        -0.1418 
      9 C9         25.9414    9.7891  -11.3781 C.2       1 <1>         0.2355 
     10 O10        23.3858   11.9763  -11.0559 O.2       1 <1>        -0.3668 
     11 O11        27.0447    9.4288  -11.7502 O.2       1 <1>        -0.3726 
     12 C12        26.0226   12.0971  -12.2974 C.3       1 <1>         0.2214 
     13 O13        26.3597   13.1182  -11.3372 O.3       1 <1>        -0.2348 
     14 C14        25.6407   14.1780  -11.6872 C.2       1 <1>         0.2491 
     15 C15        24.8018   14.0051  -12.8683 C.2       1 <1>         0.0288 
     16 C16        25.0407   12.7494  -13.2412 C.2       1 <1>        -0.0059 
     17 C17        23.8779   15.0042  -13.5085 C.3       1 <1>        -0.0323 
     18 O18        25.6913   15.2246  -11.0642 O.2       1 <1>        -0.3691 
     19 N19        21.7374    7.4253   -8.5216 N.pl3     1 <1>        -0.2358 
     20 C20        21.2540    6.2375   -8.7764 C.2       1 <1>         0.2017 
     21 O21        21.7225    5.5057   -9.6324 O.2       1 <1>        -0.3789 
     22 C22        20.0584    5.7559   -7.9858 C.3       1 <1>         0.0401 
     23 C23        19.5904    4.3365   -8.4015 C.3       1 <1>        -0.0475 
     24 H1         21.8897    9.8652   -9.5200 H         1 <1>         0.0597 
     25 H2         24.0144    6.1382   -8.9691 H         1 <1>         0.0574 
     26 H3         25.9450    7.0158  -10.2773 H         1 <1>         0.0651 
     27 H4         26.9292   11.7782  -12.8386 H         1 <1>         0.1152 
     28 H5         24.5865   12.2559  -14.0993 H         1 <1>         0.0702 
     29 H6         24.3167   15.3602  -14.4522 H         1 <1>         0.0347 
     30 H7         23.7234   15.8629  -12.8381 H         1 <1>         0.0347 
     31 H8         22.9046   14.5349  -13.7159 H         1 <1>         0.0347 
     32 H9         21.2815    8.0177   -7.8115 H         1 <1>         0.2126 
     33 H10        19.2288    6.4651   -8.1355 H         1 <1>         0.0508 
     34 H11        20.3263    5.7477   -6.9173 H         1 <1>         0.0508 
     35 H12        20.4016    3.6077   -8.2471 H         1 <1>         0.0255 
     36 H13        19.3029    4.3263   -9.4647 H         1 <1>         0.0255 
     37 H14        18.7212    4.0284   -7.7992 H         1 <1>         0.0255 
@<TRIPOS>BOND
     1    2    1 ar   
     2    2    3 ar   
     3    3    4 ar   
     4    4    5 ar   
     5    6    5 ar   
     6    1    6 ar   
     7    6    7 1    
     8    7    8 am   
     9    9    8 am   
    10    5    9 1    
    11    7   10 2    
    12    9   11 2    
    13    8   12 1    
    14   12   13 1    
    15   13   14 1    
    16   15   14 1    
    17   16   15 2    
    18   12   16 1    
    19   15   17 1    
    20   14   18 2    
    21    2   19 1    
    22   19   20 1    
    23   20   21 2    
    24   20   22 1    
    25   22   23 1    
    26    1   24 1    
    27    3   25 1    
    28    4   26 1    
    29   12   27 1    
    30   16   28 1    
    31   17   29 1    
    32   17   30 1    
    33   17   31 1    
    34   19   32 1    
    35   22   33 1    
    36   22   34 1    
    37   23   35 1    
    38   23   36 1    
    39   23   37 1    
@<TRIPOS>SUBSTRUCTURE
     1 ****        2 TEMP              0 ****  ****    0 ROOT 
@<TRIPOS>NORMAL
@<TRIPOS>FF_PBC
FORCE_FIELD_SETUP_FEATURE Force Field Setup information
v1.0  0 0.000000 0.000000 0.000000 0.000000 0.000000 0.000000 NONE 0 0 0 0 1 0 0 0 0 0 0 0 0
