#	Name:			PISM01030
#	Creating user name:	14062
#	Creation time:		Sat Oct 19 23:50:29 2019

#	Modifying user name:	14062
#	Modification time:	Sun Oct 20 00:10:36 2019

@<TRIPOS>MOLECULE
PISM01030
   28    30     3     1     0
SMALL
GAST_HUCK


@<TRIPOS>ATOM
      1 C1          2.3050    0.1707   -4.2310 C.2       1 BENZYL      0.1286 
      2 N2          3.3540    0.6402   -3.6000 N.pl3     1 BENZYL     -0.2236 
      3 C2          4.5704    0.7372   -4.2076 C.ar      1 BENZYL      0.0985 
      4 C3          4.7350    0.2641   -5.5133 C.ar      1 BENZYL      0.0810 
      5 C4          5.9798    0.2841   -6.1497 C.ar      1 BENZYL     -0.0552 
      6 C5          7.0869    0.8138   -5.4835 C.ar      1 BENZYL     -0.0737 
      7 C6          6.9322    1.3334   -4.1961 C.ar      1 BENZYL     -0.0724 
      8 C7          5.6816    1.3104   -3.5705 C.ar      1 BENZYL     -0.0336 
      9 N9          2.3527   -0.2665   -5.5082 N.am      1 BENZYL     -0.2395 
     10 C10         3.5005   -0.2630   -6.2004 C.2       1 BENZYL      0.2249 
     11 O11         3.5547   -0.6697   -7.3489 O.2       1 BENZYL     -0.3867 
     12 Cl12        1.3386    3.9691   -0.2783 Cl        3 NO         -0.0763 
     13 H1          1.3393    0.1145   -3.7184 H         1 BENZYL      0.0843 
     14 C2          3.2008    1.0215   -2.3085 C.ar      2 BENZYL      0.0738 
     15 C3          2.4473    2.1571   -1.9972 C.ar      2 BENZYL     -0.0279 
     16 C4          2.2872    2.5483   -0.6652 C.ar      2 BENZYL      0.0246 
     17 C5          2.8845    1.8060    0.3574 C.ar      2 BENZYL     -0.0667 
     18 C6          3.6381    0.6697    0.0489 C.ar      2 BENZYL     -0.0774 
     19 C7          3.7921    0.2761   -1.2836 C.ar      2 BENZYL     -0.0418 
     20 H2          6.0871   -0.1085   -7.1560 H         1 BENZYL      0.0586 
     21 H3          8.0607    0.8234   -5.9641 H         1 BENZYL      0.0498 
     22 H4          7.7885    1.7582   -3.6804 H         1 BENZYL      0.0606 
     23 H5          5.5990    1.7526   -2.5838 H         1 BENZYL      0.0505 
     24 H6          1.5367   -0.6171   -5.9702 H         1 BENZYL      0.2337 
     25 H7          1.9883    2.7369   -2.7906 H         2 BENZYL      0.0518 
     26 H8          2.7618    2.1134    1.3910 H         2 BENZYL      0.0466 
     27 H9          4.1028    0.0934    0.8433 H         2 BENZYL      0.0564 
     28 H10         4.3707   -0.6096   -1.5259 H         2 BENZYL      0.0511 
@<TRIPOS>BOND
     1    2    3 1    
     2    3    4 ar   
     3    3    8 ar   
     4    8    7 ar   
     5    7    6 ar   
     6    6    5 ar   
     7    5    4 ar   
     8    2    1 1    
     9    1    9 1    
    10    9   10 am   
    11    4   10 1    
    12   10   11 2    
    13    1   13 1    
    14   14    2 1    
    15   14   15 ar   
    16   14   19 ar   
    17   19   18 ar   
    18   18   17 ar   
    19   17   16 ar   
    20   16   15 ar   
    21   16   12 1    
    22    5   20 1    
    23    6   21 1    
    24    7   22 1    
    25    8   23 1    
    26    9   24 1    
    27   15   25 1    
    28   17   26 1    
    29   18   27 1    
    30   19   28 1    
@<TRIPOS>SUBSTRUCTURE
     1 BENZYL      2 PERM              0 ****  ****    1  
     2 BENZYL     14 PERM              0 ****  ****    2 ROOT 
     3 NO         12 PERM              0 ****  ****    1  
@<TRIPOS>NORMAL
@<TRIPOS>FF_PBC
FORCE_FIELD_SETUP_FEATURE Force Field Setup information
v1.0  0 0.000000 0.000000 0.000000 0.000000 0.000000 0.000000 NONE 0 0 0 0 1 0 0 0 0 0 0 0 0
