#	Name:			PISM00821.1
#	Creating user name:	baoopengkun
#	Creation time:		Fri Nov 30 17:53:41 2018

#	Modifying user name:	baoopengkun
#	Modification time:	Fri Nov 30 17:56:21 2018

@<TRIPOS>MOLECULE
PISM00821.1
   38    39     1     2     0
SMALL
GAST_HUCK


@<TRIPOS>ATOM
      1 C1        -11.3517   -2.4498    4.5442 C.ar      1 <1>        -0.0714 
      2 C2        -11.0197   -2.6361    3.1987 C.ar      1 <1>        -0.0386 
      3 C3        -10.3145   -1.6441    2.5040 C.ar      1 <1>         0.0855 
      4 C4         -9.9634   -0.4684    3.1726 C.ar      1 <1>        -0.0386 
      5 C5        -10.3089   -0.2740    4.5127 C.ar      1 <1>        -0.0714 
      6 C6        -10.9920   -1.2746    5.2116 C.ar      1 <1>        -0.0380 
      7 O7         -9.9465   -1.7850    1.1580 O.3       1 <1>        -0.3244 
      8 C8        -10.2569   -2.9666    0.4018 C.3       1 <1>         0.0584 
      9 C9        -11.3587   -1.1135    6.6721 C.2       1 <1>         0.0758 
     10 C10       -12.6974   -1.5139    7.1617 C.2       1 <1>         0.2383 
     11 O11       -13.8482   -1.1263    6.5816 O.3       1 <1>        -0.2865 
     12 C12       -13.7516   -0.2050    5.4779 C.3       1 <1>         0.0638 
     13 O13       -12.7615   -2.2085    8.1616 O.2       1 <1>        -0.3769 
     14 C14       -10.4707   -0.6331    7.5526 C.2       1 <1>         0.1006 
     15 O15        -9.2377   -0.2957    7.1451 O.3       1 <1>        -0.2533 
     16 C16        -8.4025    0.2205    8.1942 C.3       1 <1>         0.2446 
     17 C17        -7.0122    0.3917    7.6334 C.2       1 <1>         0.0002 
     18 C18        -6.1525   -0.4063    8.2638 C.2       1 <1>         0.0294 
     19 C19        -6.9816   -1.0895    9.2500 C.2       1 <1>         0.2496 
     20 O20        -8.2650   -0.7517    9.2505 O.3       1 <1>        -0.2294 
     21 C21        -4.6741   -0.5607    8.0328 C.3       1 <1>        -0.0323 
     22 O22        -6.5311   -1.9121   10.0283 O.2       1 <1>        -0.3691 
     23 H1        -11.8926   -3.2275    5.0751 H         1 <1>         0.0535 
     24 H2        -11.3208   -3.5595    2.7195 H         1 <1>         0.0531 
     25 H3         -9.4169    0.3013    2.6376 H         1 <1>         0.0531 
     26 H4        -10.0504    0.6608    4.9990 H         1 <1>         0.0535 
     27 H5         -9.8569   -2.8286   -0.6134 H         1 <1>         0.0576 
     28 H6        -11.3452   -3.1144    0.3277 H         1 <1>         0.0576 
     29 H7         -9.7809   -3.8552    0.8440 H         1 <1>         0.0576 
     30 H8        -14.7760    0.1344    5.2659 H         1 <1>         0.0574 
     31 H9        -13.3756   -0.6841    4.5634 H         1 <1>         0.0574 
     32 H10       -13.1451    0.6816    5.7222 H         1 <1>         0.0574 
     33 H11       -10.7878   -0.5414    8.5956 H         1 <1>         0.1284 
     34 H12        -8.7779    1.1781    8.5932 H         1 <1>         0.1224 
     35 H13        -6.7557    1.0708    6.8213 H         1 <1>         0.0707 
     36 H14        -4.2411    0.3782    7.6561 H         1 <1>         0.0347 
     37 H15        -4.5019   -1.3587    7.2955 H         1 <1>         0.0347 
     38 H16        -4.1744   -0.8300    8.9754 H         1 <1>         0.0347 
@<TRIPOS>BOND
     1    2    1 ar   
     2    2    3 ar   
     3    3    4 ar   
     4    4    5 ar   
     5    5    6 ar   
     6    1    6 ar   
     7    3    7 1    
     8    7    8 1    
     9    6    9 1    
    10    9   10 1    
    11   10   11 1    
    12   11   12 1    
    13   10   13 2    
    14    9   14 2    
    15   14   15 1    
    16   15   16 1    
    17   16   17 1    
    18   17   18 2    
    19   18   19 1    
    20   19   20 1    
    21   16   20 1    
    22   18   21 1    
    23   19   22 2    
    24    1   23 1    
    25    2   24 1    
    26    4   25 1    
    27    5   26 1    
    28    8   27 1    
    29    8   28 1    
    30    8   29 1    
    31   12   30 1    
    32   12   31 1    
    33   12   32 1    
    34   14   33 1    
    35   16   34 1    
    36   17   35 1    
    37   21   36 1    
    38   21   37 1    
    39   21   38 1    
@<TRIPOS>SUBSTRUCTURE
     1 ****        2 TEMP              0 ****  ****    0 ROOT 
@<TRIPOS>NORMAL
@<TRIPOS>FF_PBC
FORCE_FIELD_SETUP_FEATURE Force Field Setup information
v1.0  0 0.000000 0.000000 0.000000 0.000000 0.000000 0.000000 NONE 0 0 0 0 1 0 0 0 0 0 0 0 0
@<TRIPOS>RENDERING_ATTRS
ANTIALIASED_LINES 
*
