#	Name:			PISM01174
#	Creating user name:	baoopengkun
#	Creation time:		Tue Dec 18 16:56:17 2018

#	Modifying user name:	baoopengkun
#	Modification time:	Tue Dec 18 16:57:54 2018

@<TRIPOS>MOLECULE
PISM01174
   68    69     1     1     0
SMALL
GAST_HUCK


@<TRIPOS>ATOM
      1 C1         12.8462   43.2149   -2.9519 C.3       1 <1>         0.0583 
      2 O2         14.1138   42.8233   -3.5038 O.3       1 <1>        -0.3156 
      3 C3         14.3079   41.4415   -3.5611 C.ar      1 <1>         0.1528 
      4 C4         14.6358   40.7194   -2.4103 C.ar      1 <1>         0.1614 
      5 O5         14.7658   41.3554   -1.1731 O.3       1 <1>        -0.2970 
      6 C6         15.9491   42.1599   -1.0345 C.3       1 <1>         0.0673 
      7 C7         14.8360   39.3422   -2.5065 C.ar      1 <1>        -0.0023 
      8 C8         14.6848   38.6876   -3.7327 C.ar      1 <1>        -0.0525 
      9 C9         14.2575   39.3800   -4.8769 C.ar      1 <1>        -0.0479 
     10 C10        14.1730   40.7774   -4.7822 C.ar      1 <1>        -0.0178 
     11 C11        13.8865   38.6969   -6.2235 C.3       1 <1>         0.0712 
     12 C12        12.4556   39.1402   -6.7065 C.3       1 <1>        -0.0493 
     13 C13        11.3356   39.0355   -5.6291 C.3       1 <1>        -0.0697 
     14 C14        12.0065   38.4694   -8.0373 C.3       1 <1>        -0.0697 
     15 C15        14.8569   39.2686   -7.1633 C.1       1 <1>         0.0447 
     16 N16        15.6225   39.7232   -7.9034 N.1       1 <1>        -0.3167 
     17 C17        14.1450   37.1517   -6.2678 C.3       1 <1>        -0.0543 
     18 C18        13.1836   36.2527   -5.4323 C.3       1 <1>        -0.0470 
     19 C19        13.8129   34.8616   -5.1473 C.3       1 <1>        -0.0003 
     20 N20        12.9100   33.9701   -4.3763 N.3       1 <1>        -0.2961 
     21 C21        11.7630   33.3892   -5.1156 C.3       1 <1>        -0.0109 
     22 C22        12.5884   34.3977   -2.9924 C.3       1 <1>         0.0249 
     23 C23        12.2437   33.1743   -2.1346 C.ar      1 <1>        -0.0486 
     24 C24        13.0606   32.0407   -2.1993 C.ar      1 <1>        -0.0386 
     25 C25        12.7676   30.9064   -1.4383 C.ar      1 <1>         0.1132 
     26 C26        11.6349   30.8949   -0.6150 C.ar      1 <1>         0.1122 
     27 C27        10.8252   32.0304   -0.5364 C.ar      1 <1>        -0.0479 
     28 C28        11.1274   33.1679   -1.2907 C.ar      1 <1>        -0.0789 
     29 O29        11.3028   29.7617    0.1321 O.3       1 <1>        -0.3294 
     30 C30        10.7904   28.6689   -0.6475 C.3       1 <1>         0.0554 
     31 O31        13.6114   29.7949   -1.5104 O.3       1 <1>        -0.3266 
     32 C32        14.4224   29.5920   -0.3419 C.3       1 <1>         0.0568 
     33 H1         12.7907   44.3134   -2.9639 H         1 <1>         0.0574 
     34 H2         12.7367   42.8695   -1.9122 H         1 <1>         0.0574 
     35 H3         12.0192   42.8130   -3.5583 H         1 <1>         0.0574 
     36 H4         15.9706   42.9833   -1.7647 H         1 <1>         0.0594 
     37 H5         16.8525   41.5423   -1.1576 H         1 <1>         0.0594 
     38 H6         15.9528   42.5914   -0.0228 H         1 <1>         0.0594 
     39 H7         15.1133   38.7836   -1.6183 H         1 <1>         0.0631 
     40 H8         14.9199   37.6321   -3.7554 H         1 <1>         0.0763 
     41 H9         14.0025   41.3871   -5.6611 H         1 <1>         0.0699 
     42 H10        12.5063   40.2154   -6.9509 H         1 <1>         0.0200 
     43 H11        10.4274   39.5466   -5.9862 H         1 <1>         0.0224 
     44 H12        11.6391   39.5162   -4.6872 H         1 <1>         0.0224 
     45 H13        11.0555   37.9983   -5.4137 H         1 <1>         0.0224 
     46 H14        12.7859   38.5753   -8.8079 H         1 <1>         0.0224 
     47 H15        11.0888   38.9485   -8.4145 H         1 <1>         0.0224 
     48 H16        11.7891   37.4015   -7.9043 H         1 <1>         0.0224 
     49 H17        15.1858   36.9816   -5.9495 H         1 <1>         0.0170 
     50 H18        14.0998   36.7961   -7.3105 H         1 <1>         0.0170 
     51 H19        12.2529   36.0778   -5.9890 H         1 <1>         0.0269 
     52 H20        12.9204   36.7316   -4.4799 H         1 <1>         0.0269 
     53 H21        14.0846   34.3798   -6.1003 H         1 <1>         0.0428 
     54 H22        14.7458   34.9846   -4.5743 H         1 <1>         0.0428 
     55 H23        12.0739   33.0327   -6.1091 H         1 <1>         0.0392 
     56 H24        10.9581   34.1288   -5.2421 H         1 <1>         0.0392 
     57 H25        11.3573   32.5264   -4.5665 H         1 <1>         0.0392 
     58 H26        11.7551   35.1174   -3.0054 H         1 <1>         0.0566 
     59 H27        13.4532   34.8805   -2.5117 H         1 <1>         0.0566 
     60 H28        13.9325   32.0349   -2.8446 H         1 <1>         0.0451 
     61 H29         9.9575   32.0226    0.1149 H         1 <1>         0.0493 
     62 H30        10.4896   34.0427   -1.2157 H         1 <1>         0.0436 
     63 H31        10.5461   27.8438    0.0375 H         1 <1>         0.0570 
     64 H32        11.5306   28.3091   -1.3783 H         1 <1>         0.0570 
     65 H33         9.8738   28.9712   -1.1775 H         1 <1>         0.0570 
     66 H34        13.8073   29.4148    0.5535 H         1 <1>         0.0573 
     67 H35        15.0731   30.4633   -0.1691 H         1 <1>         0.0573 
     68 H36        15.0539   28.7080   -0.5127 H         1 <1>         0.0573 
@<TRIPOS>BOND
     1    2    1 1    
     2    2    3 1    
     3    3    4 ar   
     4    4    5 1    
     5    5    6 1    
     6    4    7 ar   
     7    7    8 ar   
     8    8    9 ar   
     9    9   10 ar   
    10    3   10 ar   
    11    9   11 1    
    12   11   12 1    
    13   12   13 1    
    14   12   14 1    
    15   11   15 1    
    16   15   16 3    
    17   11   17 1    
    18   17   18 1    
    19   18   19 1    
    20   19   20 1    
    21   20   21 1    
    22   20   22 1    
    23   22   23 1    
    24   23   24 ar   
    25   24   25 ar   
    26   25   26 ar   
    27   26   27 ar   
    28   27   28 ar   
    29   23   28 ar   
    30   26   29 1    
    31   29   30 1    
    32   25   31 1    
    33   31   32 1    
    34    1   33 1    
    35    1   34 1    
    36    1   35 1    
    37    6   36 1    
    38    6   37 1    
    39    6   38 1    
    40    7   39 1    
    41    8   40 1    
    42   10   41 1    
    43   12   42 1    
    44   13   43 1    
    45   13   44 1    
    46   13   45 1    
    47   14   46 1    
    48   14   47 1    
    49   14   48 1    
    50   17   49 1    
    51   17   50 1    
    52   18   51 1    
    53   18   52 1    
    54   19   53 1    
    55   19   54 1    
    56   21   55 1    
    57   21   56 1    
    58   21   57 1    
    59   22   58 1    
    60   22   59 1    
    61   24   60 1    
    62   27   61 1    
    63   28   62 1    
    64   30   63 1    
    65   30   64 1    
    66   30   65 1    
    67   32   66 1    
    68   32   67 1    
    69   32   68 1    
@<TRIPOS>SUBSTRUCTURE
     1 ****        2 TEMP              0 ****  ****    0 ROOT 
@<TRIPOS>NORMAL
@<TRIPOS>FF_PBC
FORCE_FIELD_SETUP_FEATURE Force Field Setup information
v1.0  0 0.000000 0.000000 0.000000 0.000000 0.000000 0.000000 NONE 0 0 0 0 1 0 0 0 0 0 0 0 0
