#	Name:			PISM00907.1
#	Creating user name:	baoopengkun
#	Creation time:		Fri Dec 14 10:31:16 2018

#	Modifying user name:	baoopengkun
#	Modification time:	Fri Dec 14 10:35:50 2018

@<TRIPOS>MOLECULE
PISM00907.1
   29    31     1     1     0
SMALL
GAST_HUCK


@<TRIPOS>ATOM
      1 C1         23.9115   17.7717  -15.1959 C.ar      1 <1>        -0.0499 
      2 C2         23.2831   18.9845  -15.5081 C.ar      1 <1>        -0.0634 
      3 C3         22.0375   19.3227  -14.9549 C.ar      1 <1>        -0.0341 
      4 C4         21.3777   18.4586  -14.0689 C.ar      1 <1>         0.0616 
      5 C5         22.0184   17.2562  -13.7704 C.ar      1 <1>         0.0898 
      6 C6         23.2481   16.9185  -14.3152 C.ar      1 <1>         0.0621 
      7 C7         23.5825   15.5614  -13.7466 C.2       1 <1>         0.2411 
      8 N8         22.5942   15.1588  -12.9229 N.am      1 <1>        -0.1425 
      9 C9         21.6324   16.0999  -12.8840 C.2       1 <1>         0.2359 
     10 O10        24.6020   14.9460  -14.0075 O.2       1 <1>        -0.3671 
     11 O11        20.5979   16.0543  -12.2401 O.2       1 <1>        -0.3747 
     12 C12        22.5486   13.8857  -12.2261 C.3       1 <1>         0.2212 
     13 O13        22.2725   12.8491  -13.1887 O.3       1 <1>        -0.2348 
     14 C14        23.3502   12.0738  -13.1858 C.2       1 <1>         0.2491 
     15 C15        24.4012   12.4636  -12.2522 C.2       1 <1>         0.0288 
     16 C16        23.9083   13.5502  -11.6611 C.2       1 <1>        -0.0059 
     17 C17        25.7229   11.7897  -12.0064 C.3       1 <1>        -0.0323 
     18 O18        23.4431   11.0979  -13.9105 O.2       1 <1>        -0.3691 
     19 N19        20.1764   18.7607  -13.5202 N.pl3     1 <1>        -0.3317 
     20 H20        19.7051   19.6510  -13.7392 H         1 <1>         0.1746 
     21 H21        19.7196   18.0950  -12.8740 H         1 <1>         0.1746 
     22 H1         24.8738   17.5001  -15.6174 H         1 <1>         0.0575 
     23 H2         23.7702   19.6743  -16.1910 H         1 <1>         0.0629 
     24 H3         21.5808   20.2705  -15.2208 H         1 <1>         0.0564 
     25 H4         21.7829   13.8740  -11.4324 H         1 <1>         0.1152 
     26 H5         24.4154   14.1250  -10.8874 H         1 <1>         0.0702 
     27 H6         25.7038   10.7618  -12.3984 H         1 <1>         0.0347 
     28 H7         25.9383   11.7566  -10.9280 H         1 <1>         0.0347 
     29 H8         26.5178   12.3533  -12.5169 H         1 <1>         0.0347 
@<TRIPOS>BOND
     1    2    1 ar   
     2    2    3 ar   
     3    3    4 ar   
     4    4    5 ar   
     5    5    6 ar   
     6    1    6 ar   
     7    6    7 1    
     8    7    8 am   
     9    8    9 am   
    10    5    9 1    
    11    7   10 2    
    12    9   11 2    
    13    8   12 1    
    14   12   13 1    
    15   13   14 1    
    16   14   15 1    
    17   15   16 2    
    18   12   16 1    
    19   15   17 1    
    20   14   18 2    
    21    4   19 1    
    22   19   20 1    
    23   19   21 1    
    24    1   22 1    
    25    2   23 1    
    26    3   24 1    
    27   12   25 1    
    28   16   26 1    
    29   17   27 1    
    30   17   28 1    
    31   17   29 1    
@<TRIPOS>SUBSTRUCTURE
     1 ****        2 TEMP              0 ****  ****    0 ROOT 
@<TRIPOS>NORMAL
@<TRIPOS>FF_PBC
FORCE_FIELD_SETUP_FEATURE Force Field Setup information
v1.0  0 0.000000 0.000000 0.000000 0.000000 0.000000 0.000000 NONE 0 0 0 0 1 0 0 0 0 0 0 0 0
