#	Name:			PISM00323
#	Creating user name:	malab
#	Creation time:		Fri Apr 05 17:13:24 2019

#	Modifying user name:	malab
#	Modification time:	Fri Apr 05 17:15:55 2019

@<TRIPOS>MOLECULE
PISM00323
  105   107     1     1     0
SMALL
GAST_HUCK


@<TRIPOS>ATOM
      1 O1        -12.3451  -33.4342  -28.7855 O.2       1 <1>        -0.4008 
      2 C2        -12.5950  -32.2669  -29.0421 C.2       1 <1>         0.2580 
      3 N3        -13.5460  -31.5294  -28.4533 N.am      1 <1>        -0.2671 
      4 C4        -13.6553  -30.1955  -29.0200 C.3       1 <1>         0.0750 
      5 C5        -12.4393  -30.1439  -29.9987 C.3       1 <1>         0.0775 
      6 N6        -11.9657  -31.5196  -29.9609 N.am      1 <1>        -0.2668 
      7 C7        -13.5524  -29.0628  -27.9723 C.3       1 <1>         0.0190 
      8 S8        -12.5164  -27.8408  -28.8127 S.3       1 <1>        -0.1527 
      9 C9        -11.4021  -29.1046  -29.4875 C.3       1 <1>         0.0302 
     10 C10        -6.2219  -19.2100   -5.5802 C.2       1 <1>         0.1025 
     11 C11        -4.8667  -19.8291   -5.3307 C.3       1 <1>        -0.0059 
     12 H1        -14.1561  -31.8453  -27.7243 H         1 <1>         0.0000 
     13 C13        -9.3984  -28.7029  -27.8147 C.3       1 <1>        -0.0499 
     14 C14        -9.9966  -27.8442  -26.6630 C.3       1 <1>        -0.0360 
     15 C15        -8.9159  -27.0188  -25.9096 C.3       1 <1>         0.0372 
     16 C16        -9.5068  -26.2599  -24.7411 C.2       1 <1>         0.1760 
     17 O17       -10.7159  -26.0989  -24.6792 O.2       1 <1>        -0.3971 
     18 N18        -8.6679  -25.7795  -23.7927 N.am      1 <1>        -0.2848 
     19 C19        -9.2081  -25.0710  -22.6350 C.3       1 <1>         0.0543 
     20 C20        -8.1254  -24.7979  -21.5596 C.3       1 <1>         0.0678 
     21 O21        -8.7197  -24.1128  -20.4376 O.3       1 <1>        -0.3755 
     22 C22        -7.7734  -23.8332  -19.3846 C.3       1 <1>         0.0711 
     23 C23        -8.4852  -23.0758  -18.2388 C.3       1 <1>         0.0711 
     24 O24        -7.5233  -22.7942  -17.2022 O.3       1 <1>        -0.3755 
     25 C25        -8.0782  -22.0692  -16.0870 C.3       1 <1>         0.0678 
     26 C26        -6.9650  -21.8488  -15.0328 C.3       1 <1>         0.0543 
     27 N27        -7.4599  -21.1499  -13.8492 N.am      1 <1>        -0.2846 
     28 C28        -6.7029  -21.0951  -12.7277 C.2       1 <1>         0.1783 
     29 O29        -5.6002  -21.6146  -12.6549 O.2       1 <1>        -0.3969 
     30 C30        -7.2651  -20.3577  -11.5330 C.3       1 <1>         0.0553 
     31 C31        -6.3571  -20.4748  -10.2792 C.3       1 <1>         0.0691 
     32 C32        -6.9246  -19.7779   -9.0652 C.2       1 <1>         0.2522 
     33 O33        -7.9714  -19.1553   -9.1509 O.2       1 <1>        -0.3641 
     34 N34        -6.2450  -19.8709   -7.9006 N.am      1 <1>        -0.1263 
     35 N35        -6.7909  -19.2321   -6.7219 N.2       1 <1>        -0.1083 
     36 C36        -4.3098  -19.4636   -3.9167 C.3       1 <1>        -0.0660 
     37 C37        -5.4417  -19.6276   -2.8384 C.3       1 <1>        -0.0037 
     38 C38        -6.6112  -18.7289   -3.1986 C.2       1 <1>        -0.0988 
     39 C39        -6.9535  -18.5569   -4.4816 C.2       1 <1>        -0.0184 
     40 C40        -7.3763  -18.0659   -2.0762 C.3       1 <1>        -0.0453 
     41 C41        -3.1196  -20.4117   -3.5896 C.3       1 <1>        -0.0753 
     42 C42        -3.7681  -17.9985   -3.9855 C.3       1 <1>        -0.0753 
     43 C43        -4.9446  -19.3293   -1.4326 C.2       1 <1>        -0.1235 
     44 C44        -5.0226  -20.1465   -0.3689 C.2       1 <1>        -0.0413 
     45 C45        -5.6198  -21.4952   -0.3396 C.2       1 <1>        -0.0007 
     46 C46        -7.1057  -21.6131   -0.0971 C.3       1 <1>        -0.0183 
     47 C47        -4.8791  -22.5996   -0.5137 C.2       1 <1>         0.0424 
     48 C48        -3.4118  -22.6116   -0.7220 C.2       1 <1>         0.2557 
     49 O49        -2.7600  -21.5917   -0.5810 O.2       1 <1>        -0.3586 
     50 O50        -2.7627  -23.7342   -1.0584 O.3       1 <1>        -0.2952 
     51 O51        -5.9336  -20.9827   -2.8386 O.3       1 <1>        -0.4897 
     52 H2        -14.5996  -30.1149  -29.5847 H         1 <1>         0.0000 
     53 H3        -12.7752  -29.8749  -31.0156 H         1 <1>         0.0000 
     54 H4        -11.2297  -31.8395  -30.5602 H         1 <1>         0.0000 
     55 H5        -13.0387  -29.3978  -27.0603 H         1 <1>         0.0000 
     56 H6        -14.5304  -28.6398  -27.6933 H         1 <1>         0.0000 
     57 C57       -10.4039  -29.7098  -28.4537 C.3       1 <1>         0.0000 
     58 H7        -10.8315  -28.6676  -30.3244 H         1 <1>         0.0000 
     59 H8         -4.1612  -19.4780   -6.1007 H         1 <1>         0.0000 
     60 H9         -4.9603  -20.9200   -5.4480 H         1 <1>         0.0000 
     61 H10        -8.5740  -29.2905  -27.3764 H         1 <1>         0.0000 
     62 H11        -8.9650  -28.0543  -28.5929 H         1 <1>         0.0000 
     63 H12       -10.5053  -28.5036  -25.9398 H         1 <1>         0.0000 
     64 H13       -10.7267  -27.1243  -27.0536 H         1 <1>         0.0000 
     65 H14        -8.4482  -26.2994  -26.6010 H         1 <1>         0.0000 
     66 H15        -8.1344  -27.6999  -25.5385 H         1 <1>         0.0000 
     67 H16        -7.6760  -25.8982  -23.8718 H         1 <1>         0.0000 
     68 H17       -10.0058  -25.6734  -22.1697 H         1 <1>         0.0000 
     69 H18        -9.6402  -24.1120  -22.9635 H         1 <1>         0.0000 
     70 H19        -7.3285  -24.1807  -22.0059 H         1 <1>         0.0000 
     71 H20        -7.6970  -25.7620  -21.2382 H         1 <1>         0.0000 
     72 H21        -6.9495  -23.2049  -19.7609 H         1 <1>         0.0000 
     73 H22        -7.3531  -24.7707  -18.9839 H         1 <1>         0.0000 
     74 H23        -9.3044  -23.7012  -17.8480 H         1 <1>         0.0000 
     75 H24        -8.9081  -22.1400  -18.6393 H         1 <1>         0.0000 
     76 H25        -8.8983  -22.6404  -15.6233 H         1 <1>         0.0000 
     77 H26        -8.4637  -21.0911  -16.4166 H         1 <1>         0.0000 
     78 H27        -6.1495  -21.2621  -15.4846 H         1 <1>         0.0000 
     79 H28        -6.5671  -22.8360  -14.7466 H         1 <1>         0.0000 
     80 H29        -8.3531  -20.6971  -13.8898 H         1 <1>         0.0000 
     81 H30        -8.2576  -20.7752  -11.2978 H         1 <1>         0.0000 
     82 H31        -7.3869  -19.2961  -11.8012 H         1 <1>         0.0000 
     83 H32        -5.3683  -20.0407  -10.4996 H         1 <1>         0.0000 
     84 H33        -6.2279  -21.5411  -10.0329 H         1 <1>         0.0000 
     85 H34        -5.3939  -20.3978   -7.8753 H         1 <1>         0.0000 
     86 H35        -7.7998  -17.9258   -4.7492 H         1 <1>         0.0000 
     87 H36        -8.3348  -17.6440   -2.4165 H         1 <1>         0.0000 
     88 H37        -6.7782  -17.2500   -1.6501 H         1 <1>         0.0000 
     89 H38        -7.6007  -18.7996   -1.2896 H         1 <1>         0.0000 
     90 H39        -3.4589  -21.4522   -3.4732 H         1 <1>         0.0000 
     91 H40        -2.6202  -20.1031   -2.6604 H         1 <1>         0.0000 
     92 H41        -2.3727  -20.3845   -4.3987 H         1 <1>         0.0000 
     93 H42        -3.2885  -17.6796   -3.0512 H         1 <1>         0.0000 
     94 H43        -4.5733  -17.2873   -4.2191 H         1 <1>         0.0000 
     95 H44        -3.0014  -17.9057   -4.7707 H         1 <1>         0.0000 
     96 H45        -4.4883  -18.3621   -1.2417 H         1 <1>         0.0000 
     97 H46        -4.6252  -19.8107    0.5892 H         1 <1>         0.0000 
     98 H47        -7.6164  -21.8398   -1.0438 H         1 <1>         0.0000 
     99 H48        -7.5088  -20.6745    0.3093 H         1 <1>         0.0000 
    100 H49        -7.3226  -22.4123    0.6252 H         1 <1>         0.0000 
    101 H50        -5.3927  -23.5618   -0.5005 H         1 <1>         0.0000 
    102 H51        -3.3143  -24.5008   -1.1653 H         1 <1>         0.0000 
    103 H52        -6.3888  -21.2542   -3.6272 H         1 <1>         0.0000 
    104 H53        -9.8024  -30.4432  -29.0145 H         1 <1>         0.0000 
    105 H54       -10.9235  -30.2665  -27.6608 H         1 <1>         0.0000 
@<TRIPOS>BOND
     1    2    1 2    
     2    2    3 am   
     3    4    3 1    
     4    5    4 1    
     5    5    6 1    
     6    6    2 am   
     7    4    7 1    
     8    8    7 1    
     9    9    8 1    
    10    9    5 1    
    11   35   10 2    
    12   10   11 1    
    13   13   57 1    
    14    3   12 1    
    15   13   14 1    
    16   14   15 1    
    17   15   16 1    
    18   16   17 2    
    19   16   18 am   
    20   18   19 1    
    21   19   20 1    
    22   20   21 1    
    23   21   22 1    
    24   22   23 1    
    25   23   24 1    
    26   24   25 1    
    27   25   26 1    
    28   26   27 1    
    29   27   28 am   
    30   28   29 2    
    31   28   30 1    
    32   30   31 1    
    33   31   32 1    
    34   32   33 2    
    35   32   34 am   
    36   34   35 1    
    37   11   36 1    
    38   36   37 1    
    39   38   37 1    
    40   39   38 2    
    41   10   39 1    
    42   38   40 1    
    43   36   41 1    
    44   36   42 1    
    45   37   43 1    
    46   43   44 2    
    47   44   45 1    
    48   45   46 1    
    49   45   47 2    
    50   47   48 1    
    51   48   49 2    
    52   48   50 1    
    53   37   51 1    
    54    4   52 1    
    55    5   53 1    
    56    6   54 1    
    57    7   55 1    
    58   57    9 1    
    59    7   56 1    
    60    9   58 1    
    61   11   59 1    
    62   11   60 1    
    63   13   61 1    
    64   13   62 1    
    65   14   63 1    
    66   14   64 1    
    67   15   65 1    
    68   15   66 1    
    69   18   67 1    
    70   19   68 1    
    71   19   69 1    
    72   20   70 1    
    73   20   71 1    
    74   22   72 1    
    75   22   73 1    
    76   23   74 1    
    77   23   75 1    
    78   25   76 1    
    79   25   77 1    
    80   26   78 1    
    81   26   79 1    
    82   27   80 1    
    83   30   81 1    
    84   30   82 1    
    85   31   83 1    
    86   31   84 1    
    87   34   85 1    
    88   39   86 1    
    89   40   87 1    
    90   40   88 1    
    91   40   89 1    
    92   41   90 1    
    93   41   91 1    
    94   41   92 1    
    95   42   93 1    
    96   42   94 1    
    97   42   95 1    
    98   43   96 1    
    99   44   97 1    
   100   46   98 1    
   101   46   99 1    
   102   46  100 1    
   103   47  101 1    
   104   50  102 1    
   105   51  103 1    
   106   57  104 1    
   107   57  105 1    
@<TRIPOS>SUBSTRUCTURE
     1 ****        2 TEMP              0 ****  ****    0 ROOT 
@<TRIPOS>NORMAL
@<TRIPOS>FF_PBC
FORCE_FIELD_SETUP_FEATURE Force Field Setup information
v1.0  0 0.000000 0.000000 0.000000 0.000000 0.000000 0.000000 NONE 0 0 0 0 0 0 0 0 0 0 0 0 0
