#	Name:			PISM00878.1
#	Creating user name:	baoopengkun
#	Creation time:		Thu Dec 13 23:15:37 2018

#	Modifying user name:	baoopengkun
#	Modification time:	Fri Dec 14 00:08:05 2018

@<TRIPOS>MOLECULE
PISM00878.1
   26    27     1     1     0
SMALL
GAST_HUCK


@<TRIPOS>ATOM
      1 Cl1         3.5344    1.0381   -1.0514 Cl        1 <1>        -0.0820 
      2 C2          4.4787   -0.2040    1.1896 C.ar      1 <1>        -0.0314 
      3 C3          5.4482   -0.8490    1.9720 C.ar      1 <1>         0.1203 
      4 C4          6.7205   -1.0529    1.4173 C.ar      1 <1>        -0.0450 
      5 C5          7.0120   -0.6331    0.1161 C.ar      1 <1>        -0.0429 
      6 C6          6.0315   -0.0093   -0.6572 C.ar      1 <1>         0.0988 
      7 C7          4.7658    0.2192   -0.1114 C.ar      1 <1>         0.0575 
      8 O8          6.0340   -1.8199    3.8689 O.2       1 <1>        -0.1159 
      9 O9          6.3236    0.3830   -1.9626 O.3       1 <1>        -0.2788 
     10 C10         5.8899   -0.5356   -2.9767 C.3       1 <1>         0.2333 
     11 O11         6.3298   -0.0213   -4.2492 O.3       1 <1>        -0.2317 
     12 C12         7.1952   -0.9158   -4.7101 C.2       1 <1>         0.2494 
     13 C13         7.3910   -2.0910   -3.8689 C.2       1 <1>         0.0291 
     14 C14         6.5914   -1.8658   -2.8288 C.2       1 <1>        -0.0023 
     15 C15         8.2761   -3.2812   -4.1192 C.3       1 <1>        -0.0323 
     16 O16         7.7778   -0.7636   -5.7700 O.2       1 <1>        -0.3691 
     17 H1          3.4835   -0.0192    1.5796 H         1 <1>         0.0496 
     18 N18         5.1619   -1.2654    3.2357 N.pl3     1 <1>         0.1145 
     19 H3          7.5039   -1.5409    1.9884 H         1 <1>         0.0494 
     20 H4          4.7947   -0.6579   -2.9897 H         1 <1>         0.1194 
     21 H5          6.4658   -2.5459   -1.9873 H         1 <1>         0.0705 
     22 H6          7.6934   -4.2090   -4.0189 H         1 <1>         0.0347 
     23 H7          9.0976   -3.2895   -3.3875 H         1 <1>         0.0347 
     24 H8          8.7007   -3.2349   -5.1333 H         1 <1>         0.0347 
     25 O25         4.0480   -1.0633    3.6683 O.2       1 <1>        -0.1159 
     26 H2          8.0019   -0.7902   -0.3004 H         1 <1>         0.0511 
@<TRIPOS>BOND
     1    7    1 1    
     2    3    2 ar   
     3    4    3 ar   
     4    5    4 ar   
     5    6    5 ar   
     6    6    7 ar   
     7    2    7 ar   
     8   18    8 2    
     9    6    9 1    
    10    9   10 1    
    11   10   11 1    
    12   11   12 1    
    13   12   13 1    
    14   13   14 2    
    15   10   14 1    
    16   13   15 1    
    17   12   16 2    
    18    2   17 1    
    19    3   18 1    
    20    4   19 1    
    21   10   20 1    
    22   14   21 1    
    23   15   22 1    
    24   15   23 1    
    25   15   24 1    
    26   18   25 2    
    27    5   26 1    
@<TRIPOS>SUBSTRUCTURE
     1 ****        2 TEMP              0 ****  ****    0 ROOT 
@<TRIPOS>NORMAL
@<TRIPOS>FF_PBC
FORCE_FIELD_SETUP_FEATURE Force Field Setup information
v1.0  0 0.000000 0.000000 0.000000 0.000000 0.000000 0.000000 NONE 0 0 0 0 1 0 0 0 0 0 0 0 0
