#	Name:			PISM00669
#	Creating user name:	baoopengkun
#	Creation time:		Sat Dec 08 16:53:11 2018

#	Modifying user name:	baoopengkun
#	Modification time:	Sat Dec 08 16:53:27 2018

@<TRIPOS>MOLECULE
PISM00669
   76    79     1     2     0
SMALL
GAST_HUCK


@<TRIPOS>ATOM
      1 C1         -7.1711   30.1563  -16.3235 C.3       1 <1>        -0.0435 
      2 C2         -6.6142   31.5087  -15.7877 C.3       1 <1>        -0.0265 
      3 C3         -7.5041   32.7053  -16.2081 C.3       1 <1>         0.0569 
      4 C4         -7.6438   32.7884  -17.7588 C.3       1 <1>         0.0078 
      5 C5         -7.1612   31.4971  -18.4956 C.3       1 <1>         0.1361 
      6 C6         -7.6742   30.1858  -17.8148 C.3       1 <1>         0.0054 
      7 C7         -7.0771   28.9521  -18.6088 C.3       1 <1>        -0.0289 
      8 C8         -7.2584   28.9501  -20.1689 C.3       1 <1>        -0.0190 
      9 C9         -7.0685   30.3669  -20.7919 C.3       1 <1>         0.0285 
     10 C10        -7.6338   31.4600  -19.9319 C.2       1 <1>         0.1590 
     11 C11        -7.3857   27.5493  -17.9779 C.3       1 <1>        -0.0489 
     12 C12        -7.5490   26.4241  -19.0398 C.3       1 <1>        -0.0468 
     13 C13        -8.6671   26.7358  -20.0877 C.3       1 <1>        -0.0258 
     14 C14        -8.5145   28.1777  -20.6881 C.3       1 <1>        -0.0302 
     15 C15        -8.7178   25.7382  -21.3098 C.3       1 <1>        -0.0328 
     16 C16        -9.2202   26.6297  -22.4751 C.3       1 <1>        -0.0492 
     17 C17        -8.5353   27.9942  -22.2349 C.3       1 <1>        -0.0490 
     18 C18        -7.4879   24.8245  -21.6758 C.3       1 <1>        -0.0405 
     19 C19        -7.8430   23.6269  -22.6296 C.3       1 <1>        -0.0502 
     20 C20        -8.9735   22.6657  -22.1404 C.3       1 <1>        -0.0526 
     21 C21       -10.3478   22.9565  -22.8209 C.3       1 <1>        -0.0507 
     22 C22       -11.5409   22.1889  -22.1744 C.3       1 <1>        -0.0467 
     23 C23       -12.7846   22.2619  -23.1057 C.3       1 <1>        -0.0627 
     24 C24       -11.9164   22.7617  -20.7763 C.3       1 <1>        -0.0627 
     25 C25        -6.2670   25.5571  -22.3102 C.3       1 <1>        -0.0621 
     26 C26        -9.2423   30.2108  -17.8198 C.3       1 <1>        -0.0577 
     27 C27       -10.0595   26.6413  -19.3644 C.3       1 <1>        -0.0590 
     28 O28        -8.8044   32.5920  -15.5985 O.3       1 <1>        -0.3919 
     29 O29        -5.7162   31.4758  -18.5114 O.3       1 <1>        -0.3852 
     30 O30        -8.4221   32.2735  -20.3881 O.2       1 <1>        -0.3296 
     31 H1         -7.9893   29.8323  -15.6599 H         1 <1>         0.0271 
     32 H2         -6.3567   29.4292  -16.1795 H         1 <1>         0.0271 
     33 H3         -5.5890   31.6836  -16.1503 H         1 <1>         0.0290 
     34 H4         -6.5479   31.4660  -14.6873 H         1 <1>         0.0290 
     35 H5         -7.0489   33.6430  -15.8368 H         1 <1>         0.0592 
     36 H6         -7.0538   33.6356  -18.1445 H         1 <1>         0.0303 
     37 H7         -8.6917   33.0218  -18.0016 H         1 <1>         0.0303 
     38 H8         -5.9834   29.0754  -18.5006 H         1 <1>         0.0309 
     39 H9         -6.4202   28.3686  -20.5839 H         1 <1>         0.0331 
     40 H10        -7.5025   30.4319  -21.7996 H         1 <1>         0.0490 
     41 H11        -5.9948   30.5941  -20.8940 H         1 <1>         0.0490 
     42 H12        -8.2751   27.5667  -17.3407 H         1 <1>         0.0268 
     43 H13        -6.5646   27.2465  -17.3038 H         1 <1>         0.0268 
     44 H14        -7.7762   25.4714  -18.5337 H         1 <1>         0.0271 
     45 H15        -6.5658   26.3015  -19.5098 H         1 <1>         0.0271 
     46 H16        -9.4015   28.7804  -20.4525 H         1 <1>         0.0310 
     47 H17        -9.4948   25.0015  -21.0732 H         1 <1>         0.0309 
     48 H18       -10.3108   26.7739  -22.3998 H         1 <1>         0.0268 
     49 H19        -9.0088   26.2242  -23.4758 H         1 <1>         0.0268 
     50 H20        -9.0783   28.7996  -22.7589 H         1 <1>         0.0268 
     51 H21        -7.5175   27.9729  -22.6464 H         1 <1>         0.0268 
     52 H22        -7.1468   24.3513  -20.7396 H         1 <1>         0.0301 
     53 H23        -6.9283   23.0163  -22.7285 H         1 <1>         0.0268 
     54 H24        -8.0841   23.9894  -23.6405 H         1 <1>         0.0268 
     55 H25        -9.0173   22.6961  -21.0432 H         1 <1>         0.0265 
     56 H26        -8.7175   21.6246  -22.4060 H         1 <1>         0.0265 
     57 H27       -10.2535   22.6495  -23.8763 H         1 <1>         0.0268 
     58 H28       -10.5894   24.0284  -22.8305 H         1 <1>         0.0268 
     59 H29       -11.2629   21.1262  -22.0618 H         1 <1>         0.0295 
     60 H30       -13.6306   21.7087  -22.6686 H         1 <1>         0.0232 
     61 H31       -12.5623   21.8189  -24.0891 H         1 <1>         0.0232 
     62 H32       -13.0906   23.3091  -23.2543 H         1 <1>         0.0232 
     63 H33       -11.1040   22.6386  -20.0470 H         1 <1>         0.0232 
     64 H34       -12.7985   22.2382  -20.3761 H         1 <1>         0.0232 
     65 H35       -12.1560   23.8336  -20.8524 H         1 <1>         0.0232 
     66 H36        -5.9202   26.4069  -21.7165 H         1 <1>         0.0233 
     67 H37        -6.5062   25.9129  -23.3230 H         1 <1>         0.0233 
     68 H38        -5.4139   24.8661  -22.3974 H         1 <1>         0.0233 
     69 H39        -9.6391   31.0379  -17.2228 H         1 <1>         0.0234 
     70 H40        -9.6810   29.3140  -17.3729 H         1 <1>         0.0234 
     71 H41        -9.6599   30.3303  -18.8251 H         1 <1>         0.0234 
     72 H42       -10.1917   27.4028  -18.5907 H         1 <1>         0.0235 
     73 H43       -10.1877   25.6594  -18.8820 H         1 <1>         0.0235 
     74 H44       -10.8911   26.7750  -20.0723 H         1 <1>         0.0235 
     75 H45        -8.7824   32.5647  -14.6469 H         1 <1>         0.2098 
     76 H46        -5.3224   32.2183  -18.9588 H         1 <1>         0.2077 
@<TRIPOS>BOND
     1    2    1 1    
     2    2    3 1    
     3    3    4 1    
     4    4    5 1    
     5    5    6 1    
     6    1    6 1    
     7    6    7 1    
     8    7    8 1    
     9    8    9 1    
    10    9   10 1    
    11    5   10 1    
    12    7   11 1    
    13   11   12 1    
    14   12   13 1    
    15   13   14 1    
    16    8   14 1    
    17   13   15 1    
    18   15   16 1    
    19   16   17 1    
    20   14   17 1    
    21   15   18 1    
    22   18   19 1    
    23   19   20 1    
    24   20   21 1    
    25   21   22 1    
    26   22   23 1    
    27   22   24 1    
    28   18   25 1    
    29    6   26 1    
    30   13   27 1    
    31    3   28 1    
    32    5   29 1    
    33   10   30 2    
    34    1   31 1    
    35    1   32 1    
    36    2   33 1    
    37    2   34 1    
    38    3   35 1    
    39    4   36 1    
    40    4   37 1    
    41    7   38 1    
    42    8   39 1    
    43    9   40 1    
    44    9   41 1    
    45   11   42 1    
    46   11   43 1    
    47   12   44 1    
    48   12   45 1    
    49   14   46 1    
    50   15   47 1    
    51   16   48 1    
    52   16   49 1    
    53   17   50 1    
    54   17   51 1    
    55   18   52 1    
    56   19   53 1    
    57   19   54 1    
    58   20   55 1    
    59   20   56 1    
    60   21   57 1    
    61   21   58 1    
    62   22   59 1    
    63   23   60 1    
    64   23   61 1    
    65   23   62 1    
    66   24   63 1    
    67   24   64 1    
    68   24   65 1    
    69   25   66 1    
    70   25   67 1    
    71   25   68 1    
    72   26   69 1    
    73   26   70 1    
    74   26   71 1    
    75   27   72 1    
    76   27   73 1    
    77   27   74 1    
    78   28   75 1    
    79   29   76 1    
@<TRIPOS>SUBSTRUCTURE
     1 ****        2 TEMP              0 ****  ****    0 ROOT 
@<TRIPOS>NORMAL
@<TRIPOS>FF_PBC
FORCE_FIELD_SETUP_FEATURE Force Field Setup information
v1.0  0 0.000000 0.000000 0.000000 0.000000 0.000000 0.000000 NONE 0 0 0 0 1 0 0 0 0 0 0 0 0
@<TRIPOS>RENDERING_ATTRS
ANTIALIASED_LINES 
*
