#	Name:			PISM00892
#	Creating user name:	baoopengkun
#	Creation time:		Sat Jan 12 22:18:59 2019

#	Modifying user name:	baoopengkun
#	Modification time:	Sat Jan 12 22:21:29 2019

@<TRIPOS>MOLECULE
PISM00892
   34    37     1     1     0
SMALL
GAST_HUCK


@<TRIPOS>ATOM
      1 C1         -5.8777  -16.7469   -3.7439 C.ar      1 <1>         0.0656 
      2 C2         -6.2176  -16.0584   -4.9132 C.ar      1 <1>        -0.0390 
      3 C3         -6.6876  -16.7603   -6.0263 C.ar      1 <1>        -0.0523 
      4 C4         -6.8220  -18.1506   -5.9710 C.ar      1 <1>        -0.0463 
      5 C5         -6.4897  -18.8447   -4.8014 C.ar      1 <1>        -0.0067 
      6 C6         -6.0144  -18.1375   -3.6905 C.ar      1 <1>         0.0177 
      7 C7         -5.6722  -18.8170   -2.5174 C.ar      1 <1>         0.0656 
      8 C8         -5.8201  -20.2060   -2.4456 C.ar      1 <1>        -0.0390 
      9 C9         -6.2970  -20.9143   -3.5515 C.ar      1 <1>        -0.0523 
     10 C10        -6.6264  -20.2358   -4.7283 C.ar      1 <1>        -0.0463 
     11 C11        -5.1416  -18.0334   -1.3373 C.2       1 <1>         0.2611 
     12 O12        -4.8253  -18.6342   -0.3240 O.2       1 <1>        -0.3759 
     13 N13        -5.0218  -16.6946   -1.4187 N.am      1 <1>        -0.0450 
     14 C14        -5.3603  -16.0094   -2.5276 C.2       1 <1>         0.2611 
     15 O15        -5.2548  -14.7944   -2.5693 O.2       1 <1>        -0.3759 
     16 O16        -4.2970  -15.6684    0.2036 O.3       1 <1>        -0.1776 
     17 C17        -5.2577  -14.7098    0.6476 C.3       1 <1>         0.2485 
     18 O18        -6.4734  -15.3850    1.0287 O.3       1 <1>        -0.2324 
     19 C19        -6.5649  -15.2169    2.3426 C.2       1 <1>         0.2492 
     20 O20        -7.4780  -15.6966    2.9923 O.2       1 <1>        -0.3691 
     21 C21        -5.5092  -14.4117    2.9484 C.2       1 <1>         0.0289 
     22 C22        -4.7322  -14.0884    1.9170 C.2       1 <1>        -0.0037 
     23 C23        -5.3310  -14.0304    4.3927 C.3       1 <1>        -0.0323 
     24 H1         -6.1177  -14.9785   -4.9615 H         1 <1>         0.0700 
     25 H2         -6.9483  -16.2265   -6.9356 H         1 <1>         0.0635 
     26 H3         -7.1867  -18.6845   -6.8434 H         1 <1>         0.0685 
     27 H4         -5.5660  -20.7375   -1.5335 H         1 <1>         0.0700 
     28 H5         -6.4121  -21.9928   -3.4963 H         1 <1>         0.0635 
     29 H6         -6.9897  -20.7994   -5.5824 H         1 <1>         0.0685 
     30 H7         -5.4498  -13.9609   -0.1364 H         1 <1>         0.1175 
     31 H8         -3.8347  -13.4737    1.9790 H         1 <1>         0.0702 
     32 H9         -5.3858  -12.9360    4.4930 H         1 <1>         0.0347 
     33 H10        -4.3485  -14.3771    4.7468 H         1 <1>         0.0347 
     34 H11        -6.1155  -14.4882    5.0142 H         1 <1>         0.0347 
@<TRIPOS>BOND
     1    2    1 ar   
     2    2    3 ar   
     3    3    4 ar   
     4    4    5 ar   
     5    5    6 ar   
     6    1    6 ar   
     7    6    7 ar   
     8    7    8 ar   
     9    8    9 ar   
    10    9   10 ar   
    11    5   10 ar   
    12    7   11 1    
    13   11   12 2    
    14   11   13 am   
    15   13   14 am   
    16   14   15 2    
    17    1   14 1    
    18   13   16 1    
    19   16   17 1    
    20   17   18 1    
    21   18   19 1    
    22   19   20 2    
    23   19   21 1    
    24   21   22 2    
    25   21   23 1    
    26   17   22 1    
    27    2   24 1    
    28    3   25 1    
    29    4   26 1    
    30    8   27 1    
    31    9   28 1    
    32   10   29 1    
    33   17   30 1    
    34   22   31 1    
    35   23   32 1    
    36   23   33 1    
    37   23   34 1    
@<TRIPOS>SUBSTRUCTURE
     1 ****        2 TEMP              0 ****  ****    0 ROOT 
@<TRIPOS>NORMAL
@<TRIPOS>FF_PBC
FORCE_FIELD_SETUP_FEATURE Force Field Setup information
v1.0  0 0.000000 0.000000 0.000000 0.000000 0.000000 0.000000 NONE 0 0 0 0 1 0 0 0 0 0 0 0 0
