#	Name:			PISM00317.1
#	Creating user name:	malab
#	Creation time:		Fri Apr 05 16:51:58 2019

#	Modifying user name:	malab
#	Modification time:	Fri Apr 05 16:53:55 2019

@<TRIPOS>MOLECULE
PISM00317.1
   40    42     1     1     0
SMALL
GAST_HUCK


@<TRIPOS>ATOM
      1 C1        -10.9072   -4.8331    0.2625 C.ar      1 <1>        -0.0573 
      2 C2        -11.4875   -4.7901    1.5358 C.ar      1 <1>         0.0310 
      3 C3        -12.1607   -3.6384    1.9566 C.ar      1 <1>        -0.0573 
      4 C4        -12.2310   -2.5258    1.1178 C.ar      1 <1>        -0.0678 
      5 C5        -11.6004   -2.5465   -0.1326 C.ar      1 <1>        -0.0517 
      6 C6        -10.9614   -3.7102   -0.5692 C.ar      1 <1>        -0.0678 
      7 Cl7       -11.3676   -6.1758    2.6038 Cl        1 <1>        -0.0785 
      8 C8        -11.6769   -1.3387   -1.0368 C.2       1 <1>        -0.0361 
      9 C9        -10.7550   -0.4250   -1.4106 C.2       1 <1>         0.1206 
     10 C10        -9.3023   -0.3064   -0.9027 C.3       1 <1>         0.1591 
     11 C11        -8.7653   -0.6938    0.5310 C.3       1 <1>         0.1026 
     12 H1        -10.4109   -5.7336   -0.0825 H         1 <1>         0.0000 
     13 C13        -8.6339   -2.2353    0.7603 C.3       1 <1>        -0.0066 
     14 H2        -12.6322   -3.6079    2.9323 H         1 <1>         0.0000 
     15 O15        -8.9484    1.0925   -0.9371 O.3       1 <1>        -0.3396 
     16 C16        -8.9222    1.6445   -2.2507 C.3       1 <1>         0.1098 
     17 H3        -12.7839   -1.6461    1.4307 H         1 <1>         0.0000 
     18 C18       -10.3002    1.4328   -2.7734 C.2       1 <1>         0.1005 
     19 N19       -11.0852    0.4690   -2.3327 N.pl3     1 <1>        -0.1908 
     20 C20       -12.2088    0.5734   -2.9948 C.2       1 <1>         0.1110 
     21 N21       -12.1588    1.5380   -3.7952 N.2       1 <1>        -0.3382 
     22 C22       -10.8861    2.1913   -3.7180 C.2       1 <1>        -0.0199 
     23 H4        -10.5093   -3.7434   -1.5564 H         1 <1>         0.0000 
     24 H5        -12.7046   -1.3399   -1.3812 H         1 <1>         0.0000 
     25 C25        -9.6335   -0.0311    1.6401 C.3       1 <1>        -0.3858 
     26 H6         -8.6785   -0.8472   -1.6369 H         1 <1>         0.0000 
     27 C27        -7.3082   -0.1302    0.6925 C.3       1 <1>         0.0000 
     28 H8         -7.7976   -2.4972    1.4250 H         1 <1>         0.0000 
     29 H9         -8.4609   -2.7586   -0.1910 H         1 <1>         0.0000 
     30 H10        -9.5149   -2.6453    1.2570 H         1 <1>         0.0000 
     31 H11        -8.1650    1.1718   -2.8992 H         1 <1>         0.0000 
     32 H12        -8.7054    2.7206   -2.1643 H         1 <1>         0.0000 
     33 H13       -13.1390    0.0117   -3.0008 H         1 <1>         0.0000 
     34 H14       -10.5067    3.0527   -4.2652 H         1 <1>         0.0000 
     35 H15       -10.6818   -0.3484    1.5698 H         1 <1>         0.0000 
     36 H16        -9.6106    1.0667    1.5468 H         1 <1>         0.0000 
     37 H17        -9.2541   -0.2969    2.6398 H         1 <1>         0.0000 
     38 H7         -7.2440    0.9669    0.6338 H         1 <1>         0.0000 
     39 H18        -6.6595   -0.5508   -0.0909 H         1 <1>         0.0000 
     40 H19        -6.8774   -0.3973    1.6706 H         1 <1>         0.0000 
@<TRIPOS>BOND
     1    2    1 ar   
     2    2    3 ar   
     3    3    4 ar   
     4    4    5 ar   
     5    5    6 ar   
     6    1    6 ar   
     7    2    7 1    
     8    5    8 1    
     9    8    9 2    
    10    9   10 1    
    11   10   11 1    
    12    1   12 1    
    13   11   13 1    
    14    3   14 1    
    15   10   15 1    
    16   15   16 1    
    17    4   17 1    
    18   16   18 1    
    19   18   19 1    
    20    9   19 1    
    21   19   20 1    
    22   20   21 2    
    23   21   22 1    
    24   18   22 2    
    25    6   23 1    
    26    8   24 1    
    27   11   25 1    
    28   10   26 1    
    29   11   27 1    
    30   13   28 1    
    31   13   29 1    
    32   13   30 1    
    33   16   31 1    
    34   16   32 1    
    35   20   33 1    
    36   22   34 1    
    37   25   35 1    
    38   25   36 1    
    39   25   37 1    
    40   27   38 1    
    41   27   39 1    
    42   27   40 1    
@<TRIPOS>SUBSTRUCTURE
     1 ****        2 TEMP              0 ****  ****    0 ROOT 
@<TRIPOS>NORMAL
@<TRIPOS>FF_PBC
FORCE_FIELD_SETUP_FEATURE Force Field Setup information
v1.0  0 0.000000 0.000000 0.000000 0.000000 0.000000 0.000000 NONE 0 0 0 0 0 0 0 0 0 0 0 0 0
