#	Name:			PISM00354
#	Creating user name:	baoopengkun
#	Creation time:		Sun Mar 31 22:21:44 2019

#	Modifying user name:	baoopengkun
#	Modification time:	Sun Mar 31 22:40:49 2019

@<TRIPOS>MOLECULE
PISM00354
   74    76     1     1     0
SMALL
GAST_HUCK


@<TRIPOS>ATOM
      1 N1         -2.9170    1.0423   -8.9804 N.2       1 <1>        -0.1730 
      2 C2         -3.9436    0.2804   -8.9372 C.2       1 <1>         0.0653 
      3 N3         -3.2986   -0.9935   -9.0435 N.2       1 <1>        -0.2827 
      4 C4         -2.0550   -0.8554   -9.1315 C.2       1 <1>         0.1489 
      5 N5         -1.7127    0.4062   -9.0997 N.pl3     1 <1>        -0.1236 
      6 C6         -0.5115    0.9432   -9.1695 C.2       1 <1>         0.1347 
      7 C7         -0.5107    2.4734   -9.0979 C.3       1 <1>         0.1322 
      8 C8         -0.4494    3.2116  -10.4805 C.3       1 <1>         0.0043 
      9 C9         -1.2802    2.4454  -11.5520 C.3       1 <1>        -0.0552 
     10 C10         1.0133    3.3627  -10.9931 C.3       1 <1>        -0.0552 
     11 C11        -1.0448    4.6468  -10.3229 C.3       1 <1>        -0.0552 
     12 O12         0.4644    3.0264   -8.1931 O.3       1 <1>        -0.3716 
     13 C13         0.5945    0.1850   -9.3091 C.2       1 <1>        -0.0370 
     14 C14         2.0386    0.6239   -9.4223 C.ar      1 <1>        -0.0552 
     15 C15         2.7413    0.2868  -10.5852 C.ar      1 <1>        -0.0693 
     16 C16         4.0706    0.6850  -10.7549 C.ar      1 <1>        -0.0312 
     17 C17         4.7107    1.4283   -9.7607 C.ar      1 <1>         0.1107 
     18 C18         4.0084    1.7732   -8.6012 C.ar      1 <1>        -0.0312 
     19 C19         2.7047    1.3109   -8.4041 C.ar      1 <1>        -0.0693 
     20 N20         6.0100    1.7747   -9.9080 N.pl3     1 <1>        -0.1417 
     21 C21         2.5858    0.7150   -3.2665 C.3       1 <1>        -0.0297 
     22 C22         1.2257    1.1470   -3.8831 C.3       1 <1>        -0.0538 
     23 H1         -4.9995    0.5305   -8.8457 H         1 <1>         0.0879 
     24 H2         -1.4592   -1.7612   -9.2176 H         1 <1>         0.1387 
     25 H3         -1.4688    2.7859   -8.6503 H         1 <1>         0.0846 
     26 H4         -1.2771    2.9949  -12.5061 H         1 <1>         0.0238 
     27 H5         -2.3245    2.3296  -11.2255 H         1 <1>         0.0238 
     28 H6         -0.8611    1.4448  -11.7387 H         1 <1>         0.0238 
     29 H7          1.4314    2.3880  -11.2633 H         1 <1>         0.0238 
     30 H8          1.6598    3.8280  -10.2335 H         1 <1>         0.0238 
     31 H9          1.0462    3.9898  -11.8971 H         1 <1>         0.0238 
     32 H10        -0.9750    5.2133  -11.2643 H         1 <1>         0.0238 
     33 H11        -0.4979    5.2021   -9.5450 H         1 <1>         0.0238 
     34 H12        -2.1082    4.6089  -10.0390 H         1 <1>         0.0238 
     35 H13         0.3258    2.7684   -7.2851 H         1 <1>         0.2141 
     36 H14         0.5619   -0.8976   -9.3787 H         1 <1>         0.0306 
     37 H15         2.2517   -0.2885  -11.3652 H         1 <1>         0.0534 
     38 H16         4.6087    0.4167  -11.6587 H         1 <1>         0.0577 
     39 N39         6.9919    0.9694  -10.3670 N.2       1 <1>        -0.0916 
     40 N40         8.1902    1.5676  -10.2583 N.2       1 <1>        -0.2239 
     41 C41         7.8511    2.8594   -9.7148 C.2       1 <1>         0.0640 
     42 C42         6.5249    2.9223   -9.5643 C.2       1 <1>         0.0848 
     43 C43         8.8774    3.9099   -9.3728 C.3       1 <1>         0.0827 
     44 O44         9.8167    3.4267   -8.3834 O.3       1 <1>        -0.3686 
     45 C45         9.3633    3.4582   -7.0069 C.3       1 <1>         0.0729 
     46 C46         8.0318    2.7170   -6.7410 C.3       1 <1>         0.0713 
     47 O47         7.7551    2.5710   -5.3306 O.3       1 <1>        -0.3752 
     48 C48         6.4702    1.9511   -5.0900 C.3       1 <1>         0.0711 
     49 C49         6.1640    1.8548   -3.5759 C.3       1 <1>         0.0710 
     50 O50         4.9919    1.0622   -3.2678 O.3       1 <1>        -0.3775 
     51 C51         3.7585    1.5486   -3.8392 C.3       1 <1>         0.0478 
     52 H17         4.4745    2.3831   -7.8363 H         1 <1>         0.0577 
     53 H18         2.2289    1.4687   -7.4454 H         1 <1>         0.0534 
     54 H19         2.5597    0.8459   -2.1719 H         1 <1>         0.0287 
     55 H20         2.7697   -0.3502   -3.4841 H         1 <1>         0.0287 
     56 H21         1.2517    1.0092   -4.9773 H         1 <1>         0.0263 
     57 H22         1.0489    2.2163   -3.6773 H         1 <1>         0.0263 
     58 C58         0.0541    0.3146   -3.2985 C.3       1 <1>        -0.0652 
     59 H24         5.9812    3.7881   -9.1877 H         1 <1>         0.0902 
     60 H25         8.4222    4.8675   -9.0737 H         1 <1>         0.0679 
     61 H26         9.4519    4.0804  -10.2954 H         1 <1>         0.0679 
     62 H27         9.2823    4.4996   -6.6557 H         1 <1>         0.0584 
     63 H28        10.1459    2.9647   -6.4112 H         1 <1>         0.0584 
     64 H29         8.0627    1.7334   -7.2388 H         1 <1>         0.0583 
     65 H30         7.2327    3.3351   -7.1674 H         1 <1>         0.0583 
     66 H31         6.4443    0.9342   -5.5128 H         1 <1>         0.0583 
     67 H32         5.6838    2.5607   -5.5594 H         1 <1>         0.0583 
     68 H33         6.0796    2.8654   -3.1444 H         1 <1>         0.0583 
     69 H34         7.0147    1.3530   -3.0891 H         1 <1>         0.0583 
     70 H35         3.7552    1.4200   -4.9327 H         1 <1>         0.0560 
     71 H36         3.5987    2.6110   -3.5927 H         1 <1>         0.0560 
     72 H23        -0.8987    0.6324   -3.7493 H         1 <1>         0.0230 
     73 H37        -0.0121    0.4540   -2.2091 H         1 <1>         0.0230 
     74 H38         0.1975   -0.7565   -3.5068 H         1 <1>         0.0230 
@<TRIPOS>BOND
     1    2    1 2    
     2    2    3 1    
     3    3    4 2    
     4    4    5 1    
     5    1    5 1    
     6    5    6 1    
     7    6    7 1    
     8    7    8 1    
     9    8    9 1    
    10    8   10 1    
    11    8   11 1    
    12    7   12 1    
    13    6   13 2    
    14   13   14 1    
    15   14   15 ar   
    16   15   16 ar   
    17   16   17 ar   
    18   18   17 ar   
    19   19   18 ar   
    20   14   19 ar   
    21   17   20 1    
    22   51   21 1    
    23   21   22 1    
    24    2   23 1    
    25    4   24 1    
    26    7   25 1    
    27    9   26 1    
    28    9   27 1    
    29    9   28 1    
    30   10   29 1    
    31   10   30 1    
    32   10   31 1    
    33   11   32 1    
    34   11   33 1    
    35   11   34 1    
    36   12   35 1    
    37   13   36 1    
    38   15   37 1    
    39   16   38 1    
    40   20   39 1    
    41   39   40 2    
    42   41   40 1    
    43   42   41 2    
    44   20   42 1    
    45   41   43 1    
    46   43   44 1    
    47   44   45 1    
    48   45   46 1    
    49   46   47 1    
    50   47   48 1    
    51   48   49 1    
    52   49   50 1    
    53   50   51 1    
    54   18   52 1    
    55   19   53 1    
    56   21   54 1    
    57   21   55 1    
    58   22   56 1    
    59   22   57 1    
    60   22   58 1    
    61   42   59 1    
    62   43   60 1    
    63   43   61 1    
    64   45   62 1    
    65   45   63 1    
    66   46   64 1    
    67   46   65 1    
    68   48   66 1    
    69   48   67 1    
    70   49   68 1    
    71   49   69 1    
    72   51   70 1    
    73   51   71 1    
    74   58   72 1    
    75   58   73 1    
    76   58   74 1    
@<TRIPOS>SUBSTRUCTURE
     1 ****        2 TEMP              0 ****  ****    0 ROOT 
@<TRIPOS>NORMAL
@<TRIPOS>FF_PBC
FORCE_FIELD_SETUP_FEATURE Force Field Setup information
v1.0  0 0.000000 0.000000 0.000000 0.000000 0.000000 0.000000 NONE 0 0 0 0 1 0 0 0 0 0 0 0 0
