#	Name:			PISM00438
#	Creating user name:	baoopengkun
#	Creation time:		Sun Mar 31 18:30:50 2019

#	Modifying user name:	baoopengkun
#	Modification time:	Sun Mar 31 18:41:38 2019

@<TRIPOS>MOLECULE
PISM00438
   42    43     1     1     0
SMALL
GAST_HUCK


@<TRIPOS>ATOM
      1 C1         -3.1571   -1.9364  -14.8316 C.3       1 <1>        -0.0358 
      2 C2         -2.6171   -0.7276  -14.0106 C.3       1 <1>         0.0159 
      3 C3         -3.5931   -0.2601  -12.9689 C.2       1 <1>         0.1066 
      4 C4         -4.3745   -1.2918  -12.2091 C.3       1 <1>         0.0270 
      5 C5         -4.3001   -2.7739  -12.6427 C.3       1 <1>        -0.0279 
      6 C6         -3.4396   -3.1617  -13.8877 C.3       1 <1>         0.0315 
      7 C7         -2.1048   -2.2727  -15.9373 C.3       1 <1>        -0.0684 
      8 C8         -4.4800   -1.5081  -15.5415 C.3       1 <1>        -0.0684 
      9 C9         -2.1973   -3.8755  -13.3876 C.2       1 <1>        -0.0713 
     10 C10        -2.1533   -5.1941  -13.1471 C.2       1 <1>        -0.0019 
     11 C11        -0.9462   -5.9162  -12.6753 C.2       1 <1>         0.0411 
     12 C12        -1.0130   -7.0524  -11.9601 C.2       1 <1>         0.0801 
     13 C13        -2.2163   -7.7639  -11.4858 C.2       1 <1>         0.2880 
     14 O14        -3.3076   -7.2188  -11.4845 O.2       1 <1>        -0.3368 
     15 O15        -2.1018   -9.0166  -11.0392 O.3       1 <1>        -0.2892 
     16 O16        -4.2356   -4.1238  -14.6075 O.3       1 <1>        -0.4537 
     17 C17         0.4124   -5.3521  -13.0354 C.3       1 <1>        -0.0093 
     18 C18        -3.5346   -2.2900  -11.3847 C.3       1 <1>        -0.0378 
     19 C19        -5.5554   -3.6304  -12.3235 C.3       1 <1>        -0.0678 
     20 O20        -3.7485    0.9273  -12.7338 O.2       1 <1>        -0.3914 
     21 H1         -2.4283    0.1218  -14.6862 H         1 <1>         0.0487 
     22 H2         -1.6673   -0.9643  -13.5138 H         1 <1>         0.0487 
     23 H3         -5.3149   -0.9687  -11.7352 H         1 <1>         0.0522 
     24 H4         -1.1377   -2.5655  -15.5029 H         1 <1>         0.0224 
     25 H5         -1.9275   -1.3925  -16.5743 H         1 <1>         0.0224 
     26 H6         -2.4416   -3.0845  -16.5974 H         1 <1>         0.0224 
     27 H7         -4.3325   -0.5859  -16.1244 H         1 <1>         0.0224 
     28 H8         -5.2833   -1.3266  -14.8129 H         1 <1>         0.0224 
     29 H9         -4.8276   -2.2872  -16.2367 H         1 <1>         0.0224 
     30 H10        -1.3042   -3.2863  -13.1981 H         1 <1>         0.0563 
     31 H11        -3.0635   -5.7657  -13.3165 H         1 <1>         0.1247 
     32 H12        -0.0917   -7.5519  -11.6618 H         1 <1>         0.1129 
     33 H13        -2.9389   -9.3789  -10.7652 H         1 <1>         0.2521 
     34 H14        -3.8129   -4.4928  -15.3737 H         1 <1>         0.1855 
     35 H15         1.1972   -6.1244  -13.0743 H         1 <1>         0.0431 
     36 H16         0.6991   -4.6006  -12.2850 H         1 <1>         0.0431 
     37 H17         0.3795   -4.8742  -14.0274 H         1 <1>         0.0431 
     38 H18        -3.9500   -2.5040  -10.3881 H         1 <1>         0.0287 
     39 H19        -2.4576   -2.0748  -11.4108 H         1 <1>         0.0287 
     40 H20        -6.2683   -3.5516  -13.1578 H         1 <1>         0.0224 
     41 H21        -6.0680   -3.3113  -11.4032 H         1 <1>         0.0224 
     42 H22        -5.2550   -4.6819  -12.2055 H         1 <1>         0.0224 
@<TRIPOS>BOND
     1    2    1 1    
     2    2    3 1    
     3    3    4 1    
     4    4    5 1    
     5    6    5 1    
     6    1    6 1    
     7    1    7 1    
     8    1    8 1    
     9    6    9 1    
    10    9   10 2    
    11   10   11 1    
    12   11   12 2    
    13   12   13 1    
    14   13   14 2    
    15   13   15 1    
    16    6   16 1    
    17   11   17 1    
    18    4   18 1    
    19    5   18 1    
    20    5   19 1    
    21    3   20 2    
    22    2   21 1    
    23    2   22 1    
    24    4   23 1    
    25    7   24 1    
    26    7   25 1    
    27    7   26 1    
    28    8   27 1    
    29    8   28 1    
    30    8   29 1    
    31    9   30 1    
    32   10   31 1    
    33   12   32 1    
    34   15   33 1    
    35   16   34 1    
    36   17   35 1    
    37   17   36 1    
    38   17   37 1    
    39   18   38 1    
    40   18   39 1    
    41   19   40 1    
    42   19   41 1    
    43   19   42 1    
@<TRIPOS>SUBSTRUCTURE
     1 ****        2 TEMP              0 ****  ****    0 ROOT 
@<TRIPOS>NORMAL
@<TRIPOS>FF_PBC
FORCE_FIELD_SETUP_FEATURE Force Field Setup information
v1.0  0 0.000000 0.000000 0.000000 0.000000 0.000000 0.000000 NONE 0 0 0 0 1 0 0 0 0 0 0 0 0
