#	Name:			PISM00402
#	Creating user name:	baoopengkun
#	Creation time:		Sun Mar 31 18:30:50 2019

#	Modifying user name:	baoopengkun
#	Modification time:	Sun Mar 31 18:32:13 2019

@<TRIPOS>MOLECULE
PISM00402
   39    39     1     1     0
SMALL
GAST_HUCK


@<TRIPOS>ATOM
      1 C1         -3.1074   -2.2175  -12.1133 C.3       1 <1>        -0.0518 
      2 C2         -4.4561   -2.8809  -11.6910 C.3       1 <1>        -0.0585 
      3 C3         -4.8464   -4.0702  -12.6046 C.3       1 <1>        -0.0546 
      4 C4         -3.7211   -5.1333  -12.6150 C.3       1 <1>        -0.0610 
      5 C5         -2.3593   -4.5293  -13.0683 C.3       1 <1>        -0.0608 
      6 C6         -1.9522   -3.2806  -12.2076 C.3       1 <1>         0.0246 
      7 C7         -3.2956   -1.4611  -13.4716 C.3       1 <1>        -0.0704 
      8 C8         -2.7473   -1.1329  -11.0485 C.3       1 <1>        -0.0704 
      9 C9         -1.5372   -3.7605  -10.8275 C.2       1 <1>        -0.0721 
     10 C10        -0.2997   -3.6935  -10.3168 C.2       1 <1>        -0.0082 
     11 C11        -0.0004   -4.2021   -8.9623 C.2       1 <1>         0.0276 
     12 C12         1.1283   -4.8221   -8.5845 C.2       1 <1>         0.0852 
     13 C13         2.2684   -5.1519   -9.4710 C.2       1 <1>         0.3009 
     14 O14         2.1869   -4.9729  -10.6725 O.2       1 <1>        -0.3272 
     15 O15         3.4100   -5.6626   -8.9953 O.3       1 <1>        -0.2865 
     16 O16        -0.8666   -2.5714  -12.8393 O.3       1 <1>        -0.4538 
     17 C17        -1.2907   -5.6674  -13.0594 C.3       1 <1>        -0.0730 
     18 H1         -5.2671   -2.1330  -11.7156 H         1 <1>         0.0258 
     19 H2         -4.3936   -3.2506  -10.6557 H         1 <1>         0.0258 
     20 H3         -5.0453   -3.7268  -13.6305 H         1 <1>         0.0265 
     21 H4         -5.7749   -4.5300  -12.2254 H         1 <1>         0.0265 
     22 H5         -4.0170   -5.9421  -13.3052 H         1 <1>         0.0256 
     23 H6         -3.6286   -5.5759  -11.6109 H         1 <1>         0.0256 
     24 H7         -2.4632   -4.2073  -14.1179 H         1 <1>         0.0157 
     25 H8         -4.1438   -0.7614  -13.4122 H         1 <1>         0.0223 
     26 H9         -2.4013   -0.8699  -13.7221 H         1 <1>         0.0223 
     27 H10        -3.4847   -2.1347  -14.3167 H         1 <1>         0.0223 
     28 H11        -3.5185   -0.3475  -11.0167 H         1 <1>         0.0223 
     29 H12        -2.6713   -1.5602  -10.0380 H         1 <1>         0.0223 
     30 H13        -1.7844   -0.6569  -11.2892 H         1 <1>         0.0223 
     31 H14        -2.2975   -4.2086  -10.1918 H         1 <1>         0.0556 
     32 H15         0.5164   -3.2578  -10.8880 H         1 <1>         0.1255 
     33 H16        -0.7826   -4.0549   -8.2147 H         1 <1>         0.0918 
     34 H17         1.2085   -5.1203   -7.5390 H         1 <1>         0.1276 
     35 H18         3.4477   -5.7966   -8.0566 H         1 <1>         0.2526 
     36 H19        -0.1247   -3.1019  -13.0988 H         1 <1>         0.1856 
     37 H20        -0.3286   -5.3423  -13.4788 H         1 <1>         0.0220 
     38 H21        -1.6385   -6.5132  -13.6728 H         1 <1>         0.0220 
     39 H22        -1.1144   -6.0419  -12.0400 H         1 <1>         0.0220 
@<TRIPOS>BOND
     1    2    1 1    
     2    2    3 1    
     3    3    4 1    
     4    4    5 1    
     5    5    6 1    
     6    1    6 1    
     7    1    7 1    
     8    1    8 1    
     9    6    9 1    
    10    9   10 2    
    11   10   11 1    
    12   11   12 2    
    13   12   13 1    
    14   13   14 2    
    15   13   15 1    
    16    6   16 1    
    17    5   17 1    
    18    2   18 1    
    19    2   19 1    
    20    3   20 1    
    21    3   21 1    
    22    4   22 1    
    23    4   23 1    
    24    5   24 1    
    25    7   25 1    
    26    7   26 1    
    27    7   27 1    
    28    8   28 1    
    29    8   29 1    
    30    8   30 1    
    31    9   31 1    
    32   10   32 1    
    33   11   33 1    
    34   12   34 1    
    35   15   35 1    
    36   16   36 1    
    37   17   37 1    
    38   17   38 1    
    39   17   39 1    
@<TRIPOS>SUBSTRUCTURE
     1 ****        2 TEMP              0 ****  ****    0 ROOT 
@<TRIPOS>NORMAL
@<TRIPOS>FF_PBC
FORCE_FIELD_SETUP_FEATURE Force Field Setup information
v1.0  0 0.000000 0.000000 0.000000 0.000000 0.000000 0.000000 NONE 0 0 0 0 1 0 0 0 0 0 0 0 0
