#	Name:			PISM00811
#	Creating user name:	baoopengkun
#	Creation time:		Fri Nov 30 16:58:04 2018

#	Modifying user name:	baoopengkun
#	Modification time:	Fri Nov 30 17:01:49 2018

@<TRIPOS>MOLECULE
PISM00811
   34    35     1     2     0
SMALL
GAST_HUCK


@<TRIPOS>ATOM
      1 C1         -4.1513   -0.3582    2.3715 C.ar      1 <1>        -0.0647 
      2 C2         -5.1469   -0.2989    3.3511 C.ar      1 <1>        -0.0694 
      3 C3         -5.6766    0.9348    3.7363 C.ar      1 <1>        -0.0690 
      4 C4         -5.2318    2.1024    3.1115 C.ar      1 <1>        -0.0694 
      5 C5         -4.2529    2.0355    2.1156 C.ar      1 <1>        -0.0647 
      6 C6         -3.6598    0.8117    1.7785 C.ar      1 <1>        -0.0287 
      7 C7         -2.5163    0.7168    0.7859 C.2       1 <1>         0.0835 
      8 C8         -2.4138   -0.4993   -0.0453 C.2       1 <1>         0.2398 
      9 O9         -1.5056   -1.4611    0.1950 O.3       1 <1>        -0.2865 
     10 C10        -0.6593   -1.2661    1.3472 C.3       1 <1>         0.0638 
     11 O11        -3.1804   -0.6347   -0.9830 O.2       1 <1>        -0.3770 
     12 C12        -1.5964    1.6782    0.6273 C.2       1 <1>         0.1066 
     13 O13        -1.6103    2.7674    1.4083 O.3       1 <1>        -0.2489 
     14 C14        -0.5446    3.6902    1.1310 C.3       1 <1>         0.2459 
     15 C15        -0.5652    4.7489    2.2059 C.2       1 <1>         0.0005 
     16 C16         0.5419    4.6859    2.9435 C.2       1 <1>         0.0294 
     17 C17         1.2967    3.5971    2.3340 C.2       1 <1>         0.2497 
     18 O18         0.7245    3.0224    1.2838 O.3       1 <1>        -0.2292 
     19 C19         0.9394    5.5391    4.1170 C.3       1 <1>        -0.0323 
     20 O20         2.3836    3.2369    2.7513 O.2       1 <1>        -0.3691 
     21 H1         -3.7641   -1.3285    2.0790 H         1 <1>         0.0554 
     22 H2         -5.5087   -1.2122    3.8139 H         1 <1>         0.0598 
     23 H3         -6.4318    0.9855    4.5148 H         1 <1>         0.0557 
     24 H4         -5.6509    3.0622    3.3982 H         1 <1>         0.0598 
     25 H5         -3.9743    2.9485    1.6024 H         1 <1>         0.0554 
     26 H6         -0.0338   -2.1664    1.4381 H         1 <1>         0.0574 
     27 H7         -1.2373   -1.1609    2.2784 H         1 <1>         0.0574 
     28 H8          0.0141   -0.4040    1.2309 H         1 <1>         0.0574 
     29 H9         -0.8374    1.5271   -0.1460 H         1 <1>         0.1337 
     30 H10        -0.6321    4.1457    0.1298 H         1 <1>         0.1227 
     31 H11        -1.3794    5.4567    2.3569 H         1 <1>         0.0707 
     32 H12         0.4139    6.5056    4.0929 H         1 <1>         0.0347 
     33 H13         2.0241    5.7225    4.0924 H         1 <1>         0.0347 
     34 H14         0.6861    5.0143    5.0500 H         1 <1>         0.0347 
@<TRIPOS>BOND
     1    2    1 ar   
     2    2    3 ar   
     3    3    4 ar   
     4    4    5 ar   
     5    5    6 ar   
     6    1    6 ar   
     7    6    7 1    
     8    7    8 1    
     9    8    9 1    
    10    9   10 1    
    11    8   11 2    
    12    7   12 2    
    13   12   13 1    
    14   13   14 1    
    15   14   15 1    
    16   15   16 2    
    17   16   17 1    
    18   17   18 1    
    19   14   18 1    
    20   16   19 1    
    21   17   20 2    
    22    1   21 1    
    23    2   22 1    
    24    3   23 1    
    25    4   24 1    
    26    5   25 1    
    27   10   26 1    
    28   10   27 1    
    29   10   28 1    
    30   12   29 1    
    31   14   30 1    
    32   15   31 1    
    33   19   32 1    
    34   19   33 1    
    35   19   34 1    
@<TRIPOS>SUBSTRUCTURE
     1 ****        2 TEMP              0 ****  ****    0 ROOT 
@<TRIPOS>NORMAL
@<TRIPOS>FF_PBC
FORCE_FIELD_SETUP_FEATURE Force Field Setup information
v1.0  0 0.000000 0.000000 0.000000 0.000000 0.000000 0.000000 NONE 0 0 0 0 1 0 0 0 0 0 0 0 0
@<TRIPOS>RENDERING_ATTRS
ANTIALIASED_LINES 
*
