#	Name:			PISM00430
#	Creating user name:	malab
#	Creation time:		Wed Apr 10 23:34:55 2019

#	Modifying user name:	malab
#	Modification time:	Wed Apr 10 23:37:28 2019

@<TRIPOS>MOLECULE
PISM00430
   40    41     1     2     0
SMALL
USER_CHARGES


@<TRIPOS>ATOM
      1 C1        -16.3720    0.6053   12.4012 C.3       1 <1>         0.0000 
      2 C2        -17.4944    1.0861   13.3769 C.3       1 <1>         0.0000 
      3 C3        -18.8684    1.1948   12.7651 C.2       1 <1>         0.0000 
      4 C4        -19.0615    0.7194   11.3559 C.3       1 <1>         0.0000 
      5 C5        -17.8610    0.9118   10.3337 C.3       1 <1>         0.0000 
      6 C6        -16.5339    1.3415   11.0288 C.3       1 <1>         0.0000 
      7 C7        -16.4453   -0.9428   12.2345 C.3       1 <1>         0.0000 
      8 C8        -14.9929    0.9539   13.0423 C.3       1 <1>         0.0000 
      9 O9        -19.8018    1.6756   13.3875 O.2       1 <1>         0.0000 
     10 C10       -17.9081   -0.0563    9.1246 C.3       1 <1>         0.0000 
     11 O11       -18.9453    1.7945   10.4576 O.3       1 <1>         0.0000 
     12 C12       -13.0892    1.7396    9.2121 C.2       1 <1>         0.0000 
     13 C13       -12.3595    2.7738    8.7600 C.2       1 <1>         0.0000 
     14 C14       -15.3283    1.1095   10.1332 C.2       1 <1>         0.0000 
     15 O15       -16.6584    2.7485   11.3138 O.3       1 <1>         0.0000 
     16 C16       -12.6143    4.2145    8.9684 C.2       1 <1>         0.0000 
     17 O17       -11.6822    4.9965    8.8528 O.2       1 <1>         0.0000 
     18 O18       -13.8457    4.6501    9.2582 O.3       1 <1>         0.0000 
     19 C19       -12.6739    0.3292    8.8481 C.3       1 <1>         0.0000 
     20 H20       -14.2829    2.8190   10.7161 H         1 <1>         0.0000 
     21 H1        -17.2566    2.1000   13.7366 H         1 <1>         0.0000 
     22 H2        -17.5494    0.4281   14.2585 H         1 <1>         0.0000 
     23 H3        -19.9171    0.0767   11.0967 H         1 <1>         0.0000 
     24 H4        -16.2516   -1.4389   13.1973 H         1 <1>         0.0000 
     25 C25       -14.2774    1.9403   10.0749 C.2       1 <1>         0.0000 
     26 H5        -15.6879   -1.2929   11.5182 H         1 <1>         0.0000 
     27 H6        -17.4322   -1.2774   11.8876 H         1 <1>         0.0000 
     28 H7        -14.8573    2.0433   13.1178 H         1 <1>         0.0000 
     29 H8        -14.1599    0.5412   12.4541 H         1 <1>         0.0000 
     30 H9        -14.9241    0.5343   14.0571 H         1 <1>         0.0000 
     31 H10       -18.9463   -0.2495    8.8150 H         1 <1>         0.0000 
     32 H11       -17.4368   -1.0160    9.3802 H         1 <1>         0.0000 
     33 H12       -17.3811    0.3955    8.2717 H         1 <1>         0.0000 
     34 H13       -11.4713    2.5638    8.1621 H         1 <1>         0.0000 
     35 H14       -15.3005    0.2199    9.5093 H         1 <1>         0.0000 
     36 H15       -16.8077    3.2694   10.5317 H         1 <1>         0.0000 
     37 H16       -13.9017    5.5924    9.3730 H         1 <1>         0.0000 
     38 H17       -12.9551   -0.3783    9.6424 H         1 <1>         0.0000 
     39 H18       -11.5852    0.2417    8.7082 H         1 <1>         0.0000 
     40 H19       -13.1720    0.0334    7.9121 H         1 <1>         0.0000 
@<TRIPOS>BOND
     1    2    1 1    
     2    2    3 1    
     3    3    4 1    
     4    4    5 1    
     5    5    6 1    
     6    1    6 1    
     7    1    7 1    
     8    1    8 1    
     9    3    9 2    
    10    5   10 1    
    11    4   11 1    
    12    5   11 1    
    13   25   12 1    
    14    6   14 1    
    15    6   15 1    
    16   12   13 2    
    17   13   16 1    
    18   16   17 2    
    19   16   18 1    
    20   12   19 1    
    21   25   20 1    
    22    2   21 1    
    23    2   22 1    
    24    4   23 1    
    25   14   25 2    
    26    7   24 1    
    27    7   26 1    
    28    7   27 1    
    29    8   28 1    
    30    8   29 1    
    31    8   30 1    
    32   10   31 1    
    33   10   32 1    
    34   10   33 1    
    35   13   34 1    
    36   14   35 1    
    37   15   36 1    
    38   18   37 1    
    39   19   38 1    
    40   19   39 1    
    41   19   40 1    
@<TRIPOS>SUBSTRUCTURE
     1 ****        2 TEMP              0 ****  ****    0 ROOT 
@<TRIPOS>NORMAL
@<TRIPOS>FF_PBC
FORCE_FIELD_SETUP_FEATURE Force Field Setup information
v1.0  0 0.000000 0.000000 0.000000 0.000000 0.000000 0.000000 NONE 0 0 0 0 0 0 0 0 0 0 0 0 0
@<TRIPOS>RENDERING_ATTRS
ANTIALIASED_LINES 
*
