#	Name:			PISM00009
#	Creating user name:	baoopengkun
#	Creation time:		Tue Dec 11 21:37:49 2018

#	Modifying user name:	baoopengkun
#	Modification time:	Tue Dec 11 21:40:02 2018

@<TRIPOS>MOLECULE
PISM00009
   35    37     1     1     0
SMALL
GAST_HUCK


@<TRIPOS>ATOM
      1 C1         14.0626   -8.0805   -0.3697 C.2       1 <1>         0.1784 
      2 N2         13.7714   -8.8094    0.8309 N.2       1 <1>        -0.2650 
      3 C3         14.8363   -9.0642    1.4442 C.2       1 <1>         0.1861 
      4 N4         15.8648   -8.5691    0.8140 N.pl3     1 <1>        -0.1238 
      5 N5         15.3381   -7.9909   -0.3048 N.2       1 <1>        -0.1484 
      6 C6         13.1274   -7.5784   -1.3969 C.2       1 <1>         0.2252 
      7 O7         13.5652   -6.9715   -2.3604 O.2       1 <1>        -0.3816 
      8 N8         11.8043   -7.7934   -1.2631 N.am      1 <1>        -0.2982 
      9 C9         14.8304   -9.8573    2.7337 C.ar      1 <1>         0.0398 
     10 C10        15.8525  -10.7644    3.0369 C.ar      1 <1>        -0.0446 
     11 C11        15.8614  -11.4306    4.2658 C.ar      1 <1>        -0.0574 
     12 C12        14.8213  -11.2301    5.1776 C.ar      1 <1>        -0.0585 
     13 C13        13.7705  -10.3664    4.8562 C.ar      1 <1>        -0.0574 
     14 C14        13.7751   -9.6849    3.6356 C.ar      1 <1>        -0.0446 
     15 C15        17.1617   -8.6076    1.1983 C.ar      1 <1>         0.1123 
     16 C16        18.1485   -8.8829    0.2474 C.ar      1 <1>        -0.0238 
     17 C17        19.4941   -8.9727    0.6214 C.ar      1 <1>        -0.0498 
     18 C18        19.8456   -8.7893    1.9633 C.ar      1 <1>        -0.0671 
     19 C19        18.8677   -8.4793    2.9126 C.ar      1 <1>        -0.0720 
     20 C20        17.5299   -8.3638    2.5259 C.ar      1 <1>        -0.0314 
     21 C21        20.5753   -9.2698   -0.4250 C.3       1 <1>        -0.0326 
     22 H1         11.4482   -8.2912   -0.4723 H         1 <1>         0.1810 
     23 H2         11.1810   -7.4488   -1.9648 H         1 <1>         0.1810 
     24 H3         16.6405  -10.9647    2.3186 H         1 <1>         0.0657 
     25 H4         16.6752  -12.1065    4.5112 H         1 <1>         0.0626 
     26 H5         14.8285  -11.7460    6.1332 H         1 <1>         0.0644 
     27 H6         12.9517  -10.2238    5.5552 H         1 <1>         0.0626 
     28 H7         12.9564   -9.0155    3.3901 H         1 <1>         0.0657 
     29 H8         17.8588   -9.0321   -0.7873 H         1 <1>         0.0526 
     30 H9         20.8813   -8.8862    2.2738 H         1 <1>         0.0502 
     31 H10        19.1476   -8.3261    3.9505 H         1 <1>         0.0584 
     32 H11        16.7831   -8.0785    3.2593 H         1 <1>         0.0533 
     33 H12        20.7545  -10.3549   -0.4528 H         1 <1>         0.0389 
     34 H13        21.5146   -8.7573   -0.1675 H         1 <1>         0.0389 
     35 H14        20.2623   -8.9326   -1.4247 H         1 <1>         0.0389 
@<TRIPOS>BOND
     1    2    1 1    
     2    2    3 2    
     3    3    4 1    
     4    4    5 1    
     5    1    5 2    
     6    1    6 1    
     7    6    7 2    
     8    6    8 am   
     9    3    9 1    
    10    9   10 ar   
    11   10   11 ar   
    12   11   12 ar   
    13   12   13 ar   
    14   13   14 ar   
    15    9   14 ar   
    16    4   15 1    
    17   15   16 ar   
    18   16   17 ar   
    19   17   18 ar   
    20   18   19 ar   
    21   19   20 ar   
    22   15   20 ar   
    23   17   21 1    
    24    8   22 1    
    25    8   23 1    
    26   10   24 1    
    27   11   25 1    
    28   12   26 1    
    29   13   27 1    
    30   14   28 1    
    31   16   29 1    
    32   18   30 1    
    33   19   31 1    
    34   20   32 1    
    35   21   33 1    
    36   21   34 1    
    37   21   35 1    
@<TRIPOS>SUBSTRUCTURE
     1 ****        2 TEMP              0 ****  ****    0 ROOT 
@<TRIPOS>NORMAL
@<TRIPOS>FF_PBC
FORCE_FIELD_SETUP_FEATURE Force Field Setup information
v1.0  0 0.000000 0.000000 0.000000 0.000000 0.000000 0.000000 NONE 0 0 0 0 1 0 0 0 0 0 0 0 0
