#	Name:			PISM00974
#	Creating user name:	baoopengkun
#	Creation time:		Thu Dec 13 11:34:04 2018

#	Modifying user name:	baoopengkun
#	Modification time:	Thu Dec 13 11:36:18 2018

@<TRIPOS>MOLECULE
PISM00974
   30    31     1     1     0
SMALL
GAST_HUCK


@<TRIPOS>ATOM
      1 C1         -0.6546   18.3137   -9.8368 C.ar      1 <1>        -0.0429 
      2 C2          0.2800   19.3271   -9.5930 C.ar      1 <1>        -0.0603 
      3 C3          0.1372   20.5793  -10.1975 C.ar      1 <1>        -0.0686 
      4 C4         -0.9423   20.8261  -11.0503 C.ar      1 <1>        -0.0687 
      5 C5         -1.8772   19.8175  -11.2983 C.ar      1 <1>        -0.0686 
      6 C6         -1.7314   18.5652  -10.6945 C.ar      1 <1>        -0.0603 
      7 C7         -0.5120   16.9364   -9.1733 C.3       1 <1>        -0.0163 
      8 C8         -1.5083   16.7936   -7.9928 C.3       1 <1>        -0.0098 
      9 C9         -1.2234   17.8544   -6.8972 C.3       1 <1>         0.1109 
     10 O10        -0.0031   17.5714   -6.1963 O.3       1 <1>        -0.2702 
     11 C11        -0.6186   17.4773   -5.0378 C.2       1 <1>         0.2410 
     12 C12        -1.9998   17.7474   -5.5376 C.3       1 <1>         0.1014 
     13 C13        -2.9678   16.5606   -5.3127 C.3       1 <1>         0.0326 
     14 C14        -4.1406   16.7217   -6.1630 C.1       1 <1>        -0.1027 
     15 C15        -5.1070   16.8563   -6.8677 C.1       1 <1>        -0.1190 
     16 O16        -0.1863   17.2441   -3.9225 O.2       1 <1>        -0.3700 
     17 H1          1.1213   19.1488   -8.9305 H         1 <1>         0.0557 
     18 H2          0.8651   21.3616  -10.0045 H         1 <1>         0.0599 
     19 H3         -1.0541   21.7990  -11.5192 H         1 <1>         0.0559 
     20 H4         -2.7167   20.0069  -11.9603 H         1 <1>         0.0599 
     21 H5         -2.4609   17.7870  -10.8954 H         1 <1>         0.0557 
     22 H6          0.5165   16.7858   -8.8073 H         1 <1>         0.0427 
     23 H7         -0.7120   16.1589   -9.9286 H         1 <1>         0.0427 
     24 H8         -1.4010   15.7781   -7.5824 H         1 <1>         0.0317 
     25 H9         -2.5371   16.9192   -8.3640 H         1 <1>         0.0317 
     26 H10        -1.2386   18.8885   -7.2818 H         1 <1>         0.0681 
     27 H11        -2.3787   18.7136   -5.1679 H         1 <1>         0.0593 
     28 H12        -3.3001   16.5647   -4.2631 H         1 <1>         0.0427 
     29 H13        -2.4977   15.5872   -5.5141 H         1 <1>         0.0427 
     30 H14        -5.9550   16.9740   -7.4863 H         1 <1>         0.1228 
@<TRIPOS>BOND
     1    2    1 ar   
     2    2    3 ar   
     3    3    4 ar   
     4    4    5 ar   
     5    5    6 ar   
     6    1    6 ar   
     7    1    7 1    
     8    7    8 1    
     9    8    9 1    
    10    9   10 1    
    11   10   11 1    
    12   11   12 1    
    13    9   12 1    
    14   12   13 1    
    15   13   14 1    
    16   14   15 3    
    17   11   16 2    
    18    2   17 1    
    19    3   18 1    
    20    4   19 1    
    21    5   20 1    
    22    6   21 1    
    23    7   22 1    
    24    7   23 1    
    25    8   24 1    
    26    8   25 1    
    27    9   26 1    
    28   12   27 1    
    29   13   28 1    
    30   13   29 1    
    31   15   30 1    
@<TRIPOS>SUBSTRUCTURE
     1 ****        2 TEMP              0 ****  ****    0 ROOT 
@<TRIPOS>NORMAL
@<TRIPOS>FF_PBC
FORCE_FIELD_SETUP_FEATURE Force Field Setup information
v1.0  0 0.000000 0.000000 0.000000 0.000000 0.000000 0.000000 NONE 0 0 0 0 1 0 0 0 0 0 0 0 0
