#	Name:			PISM00427
#	Creating user name:	malab
#	Creation time:		Tue Apr 09 23:41:05 2019

#	Modifying user name:	malab
#	Modification time:	Tue Apr 09 23:43:09 2019

@<TRIPOS>MOLECULE
PISM00427
   39    39     1     2     0
SMALL
USER_CHARGES


@<TRIPOS>ATOM
      1 C1         -8.5574   -4.1628   -4.9217 C.3       1 <1>         0.0000 
      2 C2         -8.0408   -5.6284   -4.8409 C.3       1 <1>         0.0000 
      3 C3         -6.5702   -5.6741   -5.1463 C.2       1 <1>         0.0000 
      4 C4         -5.7183   -4.4997   -4.8995 C.2       1 <1>         0.0000 
      5 C5         -6.2057   -3.3640   -4.3813 C.2       1 <1>         0.0000 
      6 C6         -7.6784   -3.2331   -4.0199 C.3       1 <1>         0.0000 
      7 O7         -6.0765   -6.6914   -5.6067 O.2       1 <1>         0.0000 
      8 C8         -5.3101   -2.1727   -4.1168 C.3       1 <1>         0.0000 
      9 C9        -10.0493   -4.1317   -4.4693 C.3       1 <1>         0.0000 
     10 C10        -8.4882   -3.6709   -6.4023 C.3       1 <1>         0.0000 
     11 H3         -8.5844   -6.2550   -5.5659 H         1 <1>         0.0000 
     12 H4         -8.1933   -6.0651   -3.8428 H         1 <1>         0.0000 
     13 H5         -4.6623   -4.5879   -5.1551 H         1 <1>         0.0000 
     14 O14        -8.1550   -1.8892   -4.2367 O.3       1 <1>         0.0000 
     15 C15        -7.7811   -3.6326   -2.5608 C.2       1 <1>         0.0000 
     16 H8         -5.4341   -1.8351   -3.0766 H         1 <1>         0.0000 
     17 H9         -5.5695   -1.3511   -4.8000 H         1 <1>         0.0000 
     18 H10        -4.2454   -2.4070   -4.2655 H         1 <1>         0.0000 
     19 C19        -8.5353   -2.9960   -1.6551 C.2       1 <1>         0.0000 
     20 C20        -8.5973   -3.4281   -0.2455 C.2       1 <1>         0.0000 
     21 C21        -8.3566   -2.5723    0.7586 C.2       1 <1>         0.0000 
     22 C22        -7.9643   -1.1552    0.6155 C.2       1 <1>         0.0000 
     23 C23        -8.9459   -4.8658    0.0626 C.3       1 <1>         0.0000 
     24 O24        -7.9559   -0.4456    1.6102 O.2       1 <1>         0.0000 
     25 O25        -7.6130   -0.6705   -0.5814 O.3       1 <1>         0.0000 
     26 F26       -10.8108   -4.8740   -5.3187 F         1 <1>         0.0000 
     27 F27       -10.5274   -2.8578   -4.4698 F         1 <1>         0.0000 
     28 F28       -10.1945   -4.6455   -3.2192 F         1 <1>         0.0000 
     29 H6         -7.4548   -3.6410   -6.7764 H         1 <1>         0.0000 
     30 H7         -8.9110   -2.6604   -6.5029 H         1 <1>         0.0000 
     31 H11        -9.0611   -4.3384   -7.0639 H         1 <1>         0.0000 
     32 H12        -7.7405   -1.2256   -3.6971 H         1 <1>         0.0000 
     33 H13        -7.2028   -4.4935   -2.2219 H         1 <1>         0.0000 
     34 H14        -9.1393   -2.1323   -1.9288 H         1 <1>         0.0000 
     35 H15        -8.4448   -2.9410    1.7809 H         1 <1>         0.0000 
     36 H16        -9.2652   -5.4076   -0.8409 H         1 <1>         0.0000 
     37 H17        -9.7681   -4.9083    0.7930 H         1 <1>         0.0000 
     38 H18        -8.0673   -5.3764    0.4848 H         1 <1>         0.0000 
     39 H19        -7.3713    0.2497   -0.5665 H         1 <1>         0.0000 
@<TRIPOS>BOND
     1    2    1 1    
     2    2    3 1    
     3    3    4 1    
     4    4    5 2    
     5    5    6 1    
     6    1    6 1    
     7    3    7 2    
     8    5    8 1    
     9    1    9 1    
    10    1   10 1    
    11    2   11 1    
    12    2   12 1    
    13    4   13 1    
    14    6   14 1    
    15    6   15 1    
    16    8   16 1    
    17    8   17 1    
    18    8   18 1    
    19   15   19 2    
    20   19   20 1    
    21   20   21 2    
    22   21   22 1    
    23   20   23 1    
    24   22   24 2    
    25   22   25 1    
    26    9   26 1    
    27    9   27 1    
    28    9   28 1    
    29   10   29 1    
    30   10   30 1    
    31   10   31 1    
    32   14   32 1    
    33   15   33 1    
    34   19   34 1    
    35   21   35 1    
    36   23   36 1    
    37   23   37 1    
    38   23   38 1    
    39   25   39 1    
@<TRIPOS>SUBSTRUCTURE
     1 ****        2 TEMP              0 ****  ****    0 ROOT 
@<TRIPOS>NORMAL
@<TRIPOS>FF_PBC
FORCE_FIELD_SETUP_FEATURE Force Field Setup information
v1.0  0 0.000000 0.000000 0.000000 0.000000 0.000000 0.000000 NONE 0 0 0 0 0 0 0 0 0 0 0 0 0
@<TRIPOS>RENDERING_ATTRS
ANTIALIASED_LINES 
*
