#	Name:			PISM00326
#	Creating user name:	malab
#	Creation time:		Fri Apr 05 17:37:33 2019

#	Modifying user name:	malab
#	Modification time:	Fri Apr 05 17:38:16 2019

@<TRIPOS>MOLECULE
PISM00326
   41    41     1     1     0
SMALL
GAST_HUCK


@<TRIPOS>ATOM
      1 C1        -10.1430   -7.6093  -19.8255 C.3       1 <1>        -0.0294 
      2 C2        -11.3995   -7.2518  -20.6753 C.3       1 <1>         0.0195 
      3 C3        -11.9112   -8.4773  -21.3788 C.2       1 <1>         0.1467 
      4 C4        -10.9822   -9.5523  -21.7619 C.2       1 <1>         0.0132 
      5 C5         -9.6716   -9.4736  -21.4961 C.2       1 <1>        -0.0667 
      6 C6         -9.0882   -8.2645  -20.7790 C.3       1 <1>         0.0378 
      7 O7        -13.1005   -8.5844  -21.6333 O.2       1 <1>        -0.3649 
      8 C8        -10.5276   -8.5904  -18.6705 C.3       1 <1>         0.0031 
      9 C9         -9.5741   -6.2979  -19.2021 C.3       1 <1>        -0.0700 
     10 C10       -11.6085   -8.0668  -17.8412 C.1       1 <1>        -0.1064 
     11 C11       -12.5023   -7.6328  -17.1617 C.1       1 <1>        -0.1192 
     12 O12        -8.7721   -7.3074  -21.8087 O.3       1 <1>        -0.4654 
     13 C13        -7.8475   -8.6293  -19.9858 C.2       1 <1>        -0.0860 
     14 C14        -6.7404   -7.8763  -19.9457 C.2       1 <1>        -0.0144 
     15 H1        -11.1606   -6.5011  -21.4441 H         1 <1>         0.0000 
     16 H2        -12.1947   -6.8306  -20.0406 H         1 <1>         0.0000 
     17 H3        -11.3972  -10.4204  -22.2738 H         1 <1>         0.0000 
     18 H4         -9.6780   -8.7638  -17.9937 H         1 <1>         0.0000 
     19 H5        -10.8621   -9.5647  -19.0552 H         1 <1>         0.0000 
     20 H6         -9.2390   -5.6009  -19.9847 H         1 <1>         0.0000 
     21 C21        -8.7160  -10.5726  -21.9129 C.3       1 <1>        -0.0367 
     22 H7         -8.7196   -6.5091  -18.5420 H         1 <1>         0.0000 
     23 H8        -10.3432   -5.7872  -18.6031 H         1 <1>         0.0000 
     24 H9        -13.2867   -7.2521  -16.5665 H         1 <1>         0.0000 
     25 H10        -8.1467   -7.6295  -22.4495 H         1 <1>         0.0000 
     26 H11        -7.8590   -9.5555  -19.4126 H         1 <1>         0.0000 
     27 H12        -6.7030   -6.9387  -20.4976 H         1 <1>         0.0000 
     28 C28        -5.5430   -8.2484  -19.1621 C.2       1 <1>         0.0000 
     29 H14        -8.4747  -11.2108  -21.0501 H         1 <1>         0.0000 
     30 H15        -7.7847  -10.1439  -22.3116 H         1 <1>         0.0000 
     31 H16        -9.1492  -11.2137  -22.6951 H         1 <1>         0.0000 
     32 C32        -5.7428   -8.8428  -17.7859 C.3       1 <1>         0.0000 
     33 C33        -4.2997   -8.0606  -19.6321 C.2       1 <1>         0.0000 
     34 C34        -3.9271   -7.5308  -20.9605 C.2       1 <1>         0.0000 
     35 O35        -2.7782   -7.1541  -21.1401 O.2       1 <1>         0.0000 
     36 O36        -4.8300   -7.4819  -21.9470 O.3       1 <1>         0.0000 
     37 H13        -6.7235   -8.5580  -17.3744 H         1 <1>         0.0000 
     38 H17        -4.9724   -8.4940  -17.0814 H         1 <1>         0.0000 
     39 H18        -5.6905   -9.9399  -17.8536 H         1 <1>         0.0000 
     40 H19        -3.4580   -8.3251  -18.9906 H         1 <1>         0.0000 
     41 H20        -4.4889   -7.1281  -22.7615 H         1 <1>         0.0000 
@<TRIPOS>BOND
     1    2    1 1    
     2    2    3 1    
     3    3    4 1    
     4    4    5 2    
     5    5    6 1    
     6    1    6 1    
     7    3    7 2    
     8    1    8 1    
     9    1    9 1    
    10    8   10 1    
    11   10   11 3    
    12    6   12 1    
    13    6   13 1    
    14   13   14 2    
    15    2   15 1    
    16    2   16 1    
    17    4   17 1    
    18    8   18 1    
    19    8   19 1    
    20    9   20 1    
    21    5   21 1    
    22    9   22 1    
    23    9   23 1    
    24   11   24 1    
    25   12   25 1    
    26   13   26 1    
    27   14   27 1    
    28   14   28 1    
    29   21   29 1    
    30   21   30 1    
    31   21   31 1    
    32   28   32 1    
    33   28   33 2    
    34   33   34 1    
    35   34   35 2    
    36   34   36 1    
    37   32   37 1    
    38   32   38 1    
    39   32   39 1    
    40   33   40 1    
    41   36   41 1    
@<TRIPOS>SUBSTRUCTURE
     1 ****        2 TEMP              0 ****  ****    0 ROOT 
@<TRIPOS>NORMAL
@<TRIPOS>FF_PBC
FORCE_FIELD_SETUP_FEATURE Force Field Setup information
v1.0  0 0.000000 0.000000 0.000000 0.000000 0.000000 0.000000 NONE 0 0 0 0 0 0 0 0 0 0 0 0 0
