#	Name:			PISM01178
#	Creating user name:	malab
#	Creation time:		Thu Apr 11 00:10:21 2019

#	Modifying user name:	malab
#	Modification time:	Thu Apr 11 00:16:50 2019

@<TRIPOS>MOLECULE
PISM01178
   89    89     1     1     0
SMALL
GAST_HUCK


@<TRIPOS>ATOM
      1 C1          7.1223   27.9175  -17.1287 C.3       1 <1>         0.0000 
      2 C2          5.8583   27.0046  -17.1198 C.3       1 <1>         0.0000 
      3 C3          5.5868   26.5113  -15.7072 C.2       1 <1>         0.0000 
      4 C4          4.7490   25.5208  -15.3614 C.2       1 <1>         0.0000 
      5 C5          3.9834   24.7911  -16.3836 C.2       1 <1>         0.0000 
      6 C6          4.2640   23.5164  -16.6724 C.2       1 <1>         0.0000 
      7 C7          3.5488   22.7220  -17.7351 C.3       1 <1>         0.0000 
      8 C8          4.5457   25.1030  -13.9205 C.3       1 <1>         0.0000 
      9 C9          3.0909   25.3987  -13.4758 C.3       1 <1>         0.0000 
     10 C10         5.9914   25.8911  -18.2045 C.3       1 <1>         0.0000 
     11 C11         3.1703   21.3181  -17.2017 C.3       1 <1>         0.0000 
     12 C12         2.4941   20.5723  -18.3736 C.3       1 <1>         0.0000 
     13 C13         3.5183   20.5004  -19.5270 C.3       1 <1>         0.0000 
     14 C14         4.2177   21.8090  -19.8193 C.2       1 <1>         0.0000 
     15 O15         4.4560   22.7104  -18.8533 O.3       1 <1>         0.0000 
     16 O16         4.6322   22.0372  -20.9445 O.2       1 <1>         0.0000 
     17 C17         2.2205   21.4147  -15.9772 C.3       1 <1>         0.0000 
     18 C18        11.2074   25.9616  -16.7903 C.3       1 <1>        -0.0816 
     19 C19        10.5757   26.7593  -15.6681 C.2       1 <1>        -0.0746 
     20 C20         9.2757   27.4444  -15.9065 C.2       1 <1>        -0.0435 
     21 C21        11.1671   26.8929  -14.4656 C.2       1 <1>        -0.0756 
     22 H1          7.2165   28.3961  -18.1167 H         1 <1>         0.0000 
     23 C23        12.4966   26.2896  -14.0495 C.3       1 <1>         0.0455 
     24 C24        12.5215   26.0108  -12.5587 C.2       1 <1>         0.1207 
     25 O25        12.1607   26.8675  -11.7672 O.2       1 <1>        -0.3884 
     26 C26        13.0178   24.6677  -12.0565 C.3       1 <1>         0.0580 
     27 C27        11.8260   23.7125  -11.7384 C.3       1 <1>         0.0786 
     28 C28        10.9224   23.3924  -12.9750 C.3       1 <1>        -0.0005 
     29 C29         9.5349   22.8202  -12.5562 C.3       1 <1>        -0.0021 
     30 C30        13.6321   27.2956  -14.3666 C.3       1 <1>        -0.0400 
     31 C31        13.8853   24.9025  -10.7866 C.3       1 <1>        -0.0438 
     32 O32        12.3784   22.5131  -11.1672 O.3       1 <1>        -0.3886 
     33 C33        11.6149   22.4212  -13.9743 C.3       1 <1>        -0.0572 
     34 C34         8.6413   22.6315  -13.7701 C.2       1 <1>        -0.0427 
     35 C35         8.1560   23.8940  -14.4531 C.3       1 <1>        -0.0187 
     36 C36         8.3140   21.4028  -14.2054 C.2       1 <1>        -0.0017 
     37 C37         7.5176   21.0616  -15.4008 C.2       1 <1>         0.2131 
     38 O38         7.4189   21.8575  -16.3235 O.2       1 <1>        -0.3874 
     39 O39         6.9295   19.8601  -15.4708 O.3       1 <1>        -0.3026 
     40 C40         8.4066   27.1524  -16.8865 C.2       1 <1>         0.0000 
     41 H2          6.9925   28.7352  -16.4011 H         1 <1>         0.0000 
     42 H3          5.0054   27.6498  -17.3937 H         1 <1>         0.0000 
     43 H4          6.1157   27.0180  -14.9007 H         1 <1>         0.0000 
     44 H5          3.1931   25.3312  -16.9040 H         1 <1>         0.0000 
     45 H6          5.0660   23.0152  -16.1331 H         1 <1>         0.0000 
     46 H7          2.6342   23.2448  -18.0623 H         1 <1>         0.0000 
     47 H8          5.2394   25.6131  -13.2331 H         1 <1>         0.0000 
     48 H9          4.7304   24.0226  -13.8303 H         1 <1>         0.0000 
     49 H10         2.3660   24.8868  -14.1297 H         1 <1>         0.0000 
     50 H11         2.8982   26.4819  -13.5185 H         1 <1>         0.0000 
     51 H12         2.9318   25.0498  -12.4427 H         1 <1>         0.0000 
     52 H13         6.5448   25.0276  -17.8047 H         1 <1>         0.0000 
     53 H14         6.5249   26.2674  -19.0910 H         1 <1>         0.0000 
     54 H15         5.0125   25.5451  -18.5641 H         1 <1>         0.0000 
     55 H16         4.0863   20.7804  -16.9023 H         1 <1>         0.0000 
     56 H17         1.5932   21.1133  -18.7063 H         1 <1>         0.0000 
     57 H18         2.1938   19.5564  -18.0693 H         1 <1>         0.0000 
     58 H19         3.0189   20.1313  -20.4373 H         1 <1>         0.0000 
     59 H20         4.3079   19.7783  -19.2617 H         1 <1>         0.0000 
     60 H21         1.2998   21.9565  -16.2429 H         1 <1>         0.0000 
     61 H22         2.7093   21.9440  -15.1437 H         1 <1>         0.0000 
     62 H23         1.9472   20.4054  -15.6320 H         1 <1>         0.0000 
     63 H24        10.8563   24.9199  -16.7440 H         1 <1>         0.0000 
     64 H25        12.3052   25.9689  -16.7636 H         1 <1>         0.0000 
     65 H26        10.9372   26.3904  -17.7661 H         1 <1>         0.0000 
     66 H27         9.0082   28.2605  -15.2360 H         1 <1>         0.0000 
     67 H28        10.6617   27.4967  -13.7106 H         1 <1>         0.0000 
     68 H29        12.6842   25.3520  -14.5930 H         1 <1>         0.0000 
     69 H30        13.6897   24.2021  -12.7936 H         1 <1>         0.0000 
     70 H31        11.2171   24.2270  -10.9758 H         1 <1>         0.0000 
     71 H32        10.7118   24.3385  -13.4947 H         1 <1>         0.0000 
     72 H33         9.0301   23.5024  -11.8547 H         1 <1>         0.0000 
     73 H34         9.6828   21.8692  -12.0244 H         1 <1>         0.0000 
     74 H35        14.6082   26.8664  -14.0916 H         1 <1>         0.0000 
     75 H36        13.4821   28.2258  -13.7967 H         1 <1>         0.0000 
     76 H37        13.6483   27.5442  -15.4386 H         1 <1>         0.0000 
     77 H38        14.3311   23.9585  -10.4349 H         1 <1>         0.0000 
     78 H39        13.2813   25.3263   -9.9689 H         1 <1>         0.0000 
     79 H40        14.7054   25.6033  -11.0152 H         1 <1>         0.0000 
     80 H41        11.7256   21.9128  -10.8265 H         1 <1>         0.0000 
     81 H42        11.7616   21.4345  -13.5097 H         1 <1>         0.0000 
     82 H43        12.5921   22.7969  -14.3046 H         1 <1>         0.0000 
     83 H44        10.9992   22.2875  -14.8764 H         1 <1>         0.0000 
     84 H45         8.8123   24.1344  -15.3025 H         1 <1>         0.0000 
     85 H46         8.1537   24.7481  -13.7588 H         1 <1>         0.0000 
     86 H47         7.1281   23.7776  -14.8206 H         1 <1>         0.0000 
     87 H48         8.6605   20.5295  -13.6530 H         1 <1>         0.0000 
     88 H49         6.4468   19.7102  -16.2769 H         1 <1>         0.0000 
     89 H50         8.6230   26.3293  -17.5637 H         1 <1>         0.0000 
@<TRIPOS>BOND
     1   40    1 1    
     2    1    2 1    
     3    2    3 1    
     4    3    4 2    
     5    4    5 1    
     6    5    6 2    
     7    6    7 1    
     8    4    8 1    
     9    8    9 1    
    10    2   10 1    
    11    7   11 1    
    12   11   12 1    
    13   12   13 1    
    14   13   14 1    
    15   14   15 1    
    16    7   15 1    
    17   14   16 2    
    18   11   17 1    
    19   18   19 1    
    20   19   20 1    
    21   19   21 2    
    22    1   22 1    
    23   21   23 1    
    24   23   24 1    
    25   24   25 2    
    26   24   26 1    
    27   26   27 1    
    28   27   28 1    
    29   28   29 1    
    30   23   30 1    
    31   26   31 1    
    32   27   32 1    
    33   28   33 1    
    34   29   34 1    
    35   34   35 1    
    36   34   36 2    
    37   36   37 1    
    38   37   38 2    
    39   37   39 1    
    40   20   40 2    
    41    1   41 1    
    42    2   42 1    
    43    3   43 1    
    44    5   44 1    
    45    6   45 1    
    46    7   46 1    
    47    8   47 1    
    48    8   48 1    
    49    9   49 1    
    50    9   50 1    
    51    9   51 1    
    52   10   52 1    
    53   10   53 1    
    54   10   54 1    
    55   11   55 1    
    56   12   56 1    
    57   12   57 1    
    58   13   58 1    
    59   13   59 1    
    60   17   60 1    
    61   17   61 1    
    62   17   62 1    
    63   18   63 1    
    64   18   64 1    
    65   18   65 1    
    66   20   66 1    
    67   21   67 1    
    68   23   68 1    
    69   26   69 1    
    70   27   70 1    
    71   28   71 1    
    72   29   72 1    
    73   29   73 1    
    74   30   74 1    
    75   30   75 1    
    76   30   76 1    
    77   31   77 1    
    78   31   78 1    
    79   31   79 1    
    80   32   80 1    
    81   33   81 1    
    82   33   82 1    
    83   33   83 1    
    84   35   84 1    
    85   35   85 1    
    86   35   86 1    
    87   36   87 1    
    88   39   88 1    
    89   40   89 1    
@<TRIPOS>SUBSTRUCTURE
     1 ****       18 TEMP              0 ****  ****    0 ROOT 
@<TRIPOS>NORMAL
@<TRIPOS>FF_PBC
FORCE_FIELD_SETUP_FEATURE Force Field Setup information
v1.0  0 0.000000 0.000000 0.000000 0.000000 0.000000 0.000000 NONE 0 0 0 0 0 0 0 0 0 0 0 0 0
