#	Name:			PISM00246
#	Creating user name:	14062
#	Creation time:		Wed Jun 19 14:39:27 2019

#	Modifying user name:	14062
#	Modification time:	Wed Jun 19 14:41:49 2019

@<TRIPOS>MOLECULE
PISM00246
   26    27     1     1     0
SMALL
GAST_HUCK


@<TRIPOS>ATOM
      1 C1          0.8404   -5.5397   -0.5459 C.ar      1 BENZYL     -0.0535 
      2 C1          0.8469   -5.7567    0.8359 C.ar      1 BENZYL     -0.0178 
      3 C2          1.1243   -7.1113    1.3749 C.ar      1 BENZYL     -0.0179 
      4 C3          0.2019   -7.7301    2.2247 C.ar      1 BENZYL     -0.0540 
      5 C4          0.4635   -9.0049    2.7354 C.ar      1 BENZYL     -0.0612 
      6 C5          1.6462   -9.6664    2.3919 C.ar      1 BENZYL     -0.0617 
      7 C6          2.5679   -9.0508    1.5401 C.ar      1 BENZYL     -0.0612 
      8 C7          2.3083   -7.7733    1.0349 C.ar      1 BENZYL     -0.0540 
      9 C9          0.5775   -4.2639   -1.0535 C.ar      1 BENZYL     -0.0535 
     10 C10         0.3146   -3.2063   -0.1799 C.ar      1 BENZYL     -0.0178 
     11 C11         0.3218   -3.4195    1.2005 C.ar      1 BENZYL     -0.0535 
     12 C12         0.5909   -4.6938    1.7085 C.ar      1 BENZYL     -0.0535 
     13 B13         0.0290   -1.8643   -0.7156 B         1 BENZYL      0.0000 
     14 O14         0.6304   -0.3988   -1.4051 O.3       1 BENZYL     -0.2528 
     15 O15        -0.9336   -0.5072   -1.1807 O.3       1 BENZYL     -0.2528 
     16 H1          1.0370   -6.3619   -1.2267 H         1 BENZYL      0.0624 
     17 H2         -0.7205   -7.2219    2.4875 H         1 BENZYL      0.0624 
     18 H3         -0.2522   -9.4816    3.3982 H         1 BENZYL      0.0618 
     19 H4          1.8487  -10.6575    2.7865 H         1 BENZYL      0.0618 
     20 H5          3.4859   -9.5647    1.2713 H         1 BENZYL      0.0618 
     21 H6          3.0293   -7.2950    0.3794 H         1 BENZYL      0.0624 
     22 H7          0.5751   -4.0879   -2.1240 H         1 BENZYL      0.0624 
     23 H8          0.1181   -2.5919    1.8717 H         1 BENZYL      0.0624 
     24 H9          0.6027   -4.8561    2.7817 H         1 BENZYL      0.0624 
     25 H10         1.5668   -0.3402   -1.2538 H         1 BENZYL      0.2528 
     26 H11        -1.8420   -0.7759   -1.2563 H         1 BENZYL      0.2528 
@<TRIPOS>BOND
     1    2    3 1    
     2    3    4 ar   
     3    3    8 ar   
     4    8    7 ar   
     5    7    6 ar   
     6    6    5 ar   
     7    5    4 ar   
     8    2    1 ar   
     9    1    9 ar   
    10    9   10 ar   
    11   10   11 ar   
    12   11   12 ar   
    13    2   12 ar   
    14   10   13 1    
    15   13   14 1    
    16   13   15 1    
    17    1   16 1    
    18    4   17 1    
    19    5   18 1    
    20    6   19 1    
    21    7   20 1    
    22    8   21 1    
    23    9   22 1    
    24   11   23 1    
    25   12   24 1    
    26   14   25 1    
    27   15   26 1    
@<TRIPOS>SUBSTRUCTURE
     1 BENZYL      2 PERM              0 ****  ****    0 ROOT 
@<TRIPOS>NORMAL
@<TRIPOS>FF_PBC
FORCE_FIELD_SETUP_FEATURE Force Field Setup information
v1.0  0 0.000000 0.000000 0.000000 0.000000 0.000000 0.000000 NONE 0 0 0 0 1 0 0 0 0 0 0 0 0
