#	Name:			PISM00526
#	Creating user name:	baoopengkun
#	Creation time:		Sun Dec 16 00:47:12 2018

#	Modifying user name:	baoopengkun
#	Modification time:	Sun Dec 16 00:52:35 2018

@<TRIPOS>MOLECULE
PISM00526
   64    69     1     1     0
SMALL
GAST_HUCK
INVALID_CHARGES

@<TRIPOS>ATOM
      1 C1          7.8259   11.0758   23.2580 C.ar      1 <1>         0.0000 
      2 C2          7.1992   11.7891   24.2837 C.ar      1 <1>         0.0000 
      3 C3          7.8410   12.8872   24.8641 C.ar      1 <1>         0.0000 
      4 C4          9.0964   11.4572   22.8173 C.ar      1 <1>         0.0258 
      5 C5          9.7684   10.6630   21.7206 C.2       1 <1>         0.1755 
      6 O6          9.2552   10.7181   20.6150 O.2       1 <1>        -0.3972 
      7 N7         10.8814    9.9083   21.9465 N.am      1 <1>        -0.2702 
      8 C8         11.5038    9.8036   23.2667 C.3       1 <1>         0.0394 
      9 C9         11.4790    8.3086   23.6928 C.3       1 <1>         0.0076 
     10 C10        10.0316    7.7994   23.9116 C.3       1 <1>         0.0612 
     11 N11         9.2543    7.4919   22.7011 N.pl3     1 <1>        -0.2171 
     12 C12         7.9643    7.3016   22.8503 C.2       1 <1>         0.2270 
     13 O13         7.4311    7.3826   23.9474 O.2       1 <1>        -0.4054 
     14 C14         7.0492    6.9703   21.7311 C.2       1 <1>         0.1124 
     15 C15         7.6282    6.8679   20.5281 C.2       1 <1>        -0.0648 
     16 N16         5.7826    6.8177   22.0516 N.pl3     1 <1>        -0.2466 
     17 C17        11.4373    9.1131   20.8520 C.3       1 <1>         0.0516 
     18 C18        11.2981    7.6394   21.3095 C.3       1 <1>         0.0439 
     19 C19        12.1101    7.4135   22.6053 C.3       1 <1>        -0.0261 
     20 C20         9.8136    7.3968   21.5133 C.2       1 <1>         0.0632 
     21 C21         9.0768    7.0953   20.4342 C.2       1 <1>        -0.0619 
     22 C22         4.8061    6.5090   21.2341 C.2       1 <1>         0.2248 
     23 O23         4.9467    6.2834   20.0451 O.2       1 <1>        -0.3693 
     24 C24         3.3797    6.3973   21.7383 C.ar      1 <1>         0.0542 
     25 C25         2.8802    7.2417   22.7380 C.ar      1 <1>        -0.0413 
     26 C26         1.5775    7.0778   23.2185 C.ar      1 <1>        -0.0488 
     27 C27         0.7455    6.0947   22.6756 C.ar      1 <1>        -0.0140 
     28 C28         1.2249    5.2755   21.6498 C.ar      1 <1>        -0.0488 
     29 C29         2.5336    5.4299   21.1834 C.ar      1 <1>        -0.0413 
     30 C30        -0.6379    5.9253   23.1847 C.ar      1 <1>        -0.0153 
     31 C31        -0.8593    5.6697   24.5416 C.ar      1 <1>        -0.0530 
     32 C32        -2.1629    5.5179   25.0234 C.ar      1 <1>        -0.0605 
     33 C33        -3.2477    5.6150   24.1471 C.ar      1 <1>        -0.0611 
     34 C34        -3.0280    5.8653   22.7894 C.ar      1 <1>        -0.0605 
     35 C35        -1.7243    6.0220   22.3094 C.ar      1 <1>        -0.0530 
     36 C36         9.1060   13.2771   24.4140 C.ar      1 <1>         0.0000 
     37 C37         9.7317   12.5649   23.3867 C.ar      1 <1>         0.0000 
     38 H1          7.3278   10.2236   22.8059 H         1 <1>         0.0000 
     39 H2          6.2147   11.4898   24.6294 H         1 <1>         0.0000 
     40 H3          7.3566   13.4378   25.6645 H         1 <1>         0.0000 
     41 H4         11.0242   10.4016   24.0540 H         1 <1>         0.0000 
     42 H5         12.5480   10.1459   23.1877 H         1 <1>         0.0000 
     43 H6         12.0478    8.2082   24.6351 H         1 <1>         0.0000 
     44 H7          9.5106    8.5409   24.5400 H         1 <1>         0.0000 
     45 H8         10.0834    6.8568   24.4821 H         1 <1>         0.0000 
     46 H9          7.1425    6.6344   19.5848 H         1 <1>         0.0000 
     47 H10         5.5398    6.9426   23.0467 H         1 <1>         0.0000 
     48 H11        12.4988    9.3726   20.7125 H         1 <1>         0.0000 
     49 H12        10.9400    9.2504   19.8787 H         1 <1>         0.0000 
     50 H13        11.7099    6.9772   20.5276 H         1 <1>         0.0000 
     51 H14        13.1697    7.6776   22.4542 H         1 <1>         0.0000 
     52 H15        12.0599    6.3528   22.9026 H         1 <1>         0.0000 
     53 H16         9.5344    7.0162   19.4469 H         1 <1>         0.0000 
     54 H17         3.4904    8.0405   23.1455 H         1 <1>         0.0000 
     55 H18         1.2110    7.7208   24.0127 H         1 <1>         0.0000 
     56 H19         0.5826    4.5158   21.2153 H         1 <1>         0.0000 
     57 H20         2.8907    4.7849   20.3867 H         1 <1>         0.0000 
     58 H21        -0.0191    5.5873   25.2240 H         1 <1>         0.0000 
     59 H22        -2.3327    5.3240   26.0781 H         1 <1>         0.0000 
     60 H23        -4.2601    5.4960   24.5206 H         1 <1>         0.0000 
     61 H24        -3.8699    5.9385   22.1078 H         1 <1>         0.0000 
     62 H25        -1.5580    6.2211   21.2554 H         1 <1>         0.0000 
     63 H26         9.6024   14.1326   24.8615 H         1 <1>         0.0000 
     64 H27        10.7103   12.8709   23.0303 H         1 <1>         0.0000 
@<TRIPOS>BOND
     1    4    1 ar   
     2    1    2 ar   
     3    2    3 ar   
     4    4    5 1    
     5    5    6 2    
     6    5    7 am   
     7    7    8 1    
     8    8    9 1    
     9    9   10 1    
    10   10   11 1    
    11   11   12 1    
    12   12   13 2    
    13   12   14 1    
    14   14   15 2    
    15   14   16 1    
    16    7   17 1    
    17   17   18 1    
    18   18   19 1    
    19    9   19 1    
    20   18   20 1    
    21   11   20 1    
    22   20   21 2    
    23   15   21 1    
    24   16   22 1    
    25   22   23 2    
    26   22   24 1    
    27   24   25 ar   
    28   25   26 ar   
    29   26   27 ar   
    30   27   28 ar   
    31   28   29 ar   
    32   24   29 ar   
    33   27   30 1    
    34   30   31 ar   
    35   31   32 ar   
    36   32   33 ar   
    37   33   34 ar   
    38   34   35 ar   
    39   30   35 ar   
    40    3   36 ar   
    41   36   37 ar   
    42    4   37 ar   
    43    1   38 1    
    44    2   39 1    
    45    3   40 1    
    46    8   41 1    
    47    8   42 1    
    48    9   43 1    
    49   10   44 1    
    50   10   45 1    
    51   15   46 1    
    52   16   47 1    
    53   17   48 1    
    54   17   49 1    
    55   18   50 1    
    56   19   51 1    
    57   19   52 1    
    58   21   53 1    
    59   25   54 1    
    60   26   55 1    
    61   28   56 1    
    62   29   57 1    
    63   31   58 1    
    64   32   59 1    
    65   33   60 1    
    66   34   61 1    
    67   35   62 1    
    68   36   63 1    
    69   37   64 1    
@<TRIPOS>SUBSTRUCTURE
     1 ****        4 TEMP              0 ****  ****    0 ROOT 
@<TRIPOS>NORMAL
@<TRIPOS>FF_PBC
FORCE_FIELD_SETUP_FEATURE Force Field Setup information
v1.0  0 0.000000 0.000000 0.000000 0.000000 0.000000 0.000000 NONE 0 0 0 0 1 0 0 0 0 0 0 0 0
