#	Name:			PISM00413
#	Creating user name:	malab
#	Creation time:		Tue Apr 09 23:34:51 2019

#	Modifying user name:	malab
#	Modification time:	Tue Apr 09 23:40:27 2019

@<TRIPOS>MOLECULE
PISM00413
   39    39     1     2     0
SMALL
USER_CHARGES


@<TRIPOS>ATOM
      1 C1         -8.5442   -4.2707   -4.9541 C.3       1 <1>         0.0000 
      2 C2         -7.8647   -5.6711   -4.9448 C.3       1 <1>         0.0000 
      3 C3         -6.4126   -5.5335   -5.3005 C.2       1 <1>         0.0000 
      4 C4         -5.6717   -4.3275   -4.9037 C.2       1 <1>         0.0000 
      5 C5         -6.2694   -3.2843   -4.3119 C.2       1 <1>         0.0000 
      6 C6         -7.7675   -3.2642   -4.0368 C.3       1 <1>         0.0000 
      7 O7         -5.8427   -6.4201   -5.9175 O.2       1 <1>         0.0000 
      8 C8         -5.4656   -2.0799   -3.8696 C.3       1 <1>         0.0000 
      9 C9        -10.0135   -4.4276   -4.4622 C.3       1 <1>         0.0000 
     10 C10        -8.5721   -3.7343   -6.4208 C.3       1 <1>         0.0000 
     11 H3         -8.3592   -6.3344   -5.6728 H         1 <1>         0.0000 
     12 H4         -7.9291   -6.1560   -3.9597 H         1 <1>         0.0000 
     13 H5         -4.5999   -4.3161   -5.1053 H         1 <1>         0.0000 
     14 O14        -8.3350   -1.9694   -4.3281 O.3       1 <1>         0.0000 
     15 C15        -7.9145   -3.6291   -2.5716 C.2       1 <1>         0.0000 
     16 H8         -5.7410   -1.7998   -2.8414 H         1 <1>         0.0000 
     17 H9         -5.6553   -1.2312   -4.5426 H         1 <1>         0.0000 
     18 H10        -4.3832   -2.2790   -3.8774 H         1 <1>         0.0000 
     19 C19        -8.5789   -2.9037   -1.6623 C.2       1 <1>         0.0000 
     20 C20        -8.6755   -3.3201   -0.2499 C.2       1 <1>         0.0000 
     21 C21        -8.2040   -2.5508    0.7416 C.2       1 <1>         0.0000 
     22 C22        -7.5116   -1.2549    0.5815 C.2       1 <1>         0.0000 
     23 C23        -9.3284   -4.6442    0.0685 C.3       1 <1>         0.0000 
     24 O24        -7.2523   -0.6008    1.5807 O.2       1 <1>         0.0000 
     25 O25        -7.1692   -0.8187   -0.6362 O.3       1 <1>         0.0000 
     26 F26       -10.7175   -5.2305   -5.3062 F         1 <1>         0.0000 
     27 H1        -10.5201   -3.4515   -4.4198 H         1 <1>         0.0000 
     28 H2        -10.0602   -4.8866   -3.4635 H         1 <1>         0.0000 
     29 H6         -7.5561   -3.5290   -6.7895 H         1 <1>         0.0000 
     30 H7         -9.1546   -2.8033   -6.4949 H         1 <1>         0.0000 
     31 H11        -9.0373   -4.4662   -7.0993 H         1 <1>         0.0000 
     32 H12        -7.9636   -1.2425   -3.8432 H         1 <1>         0.0000 
     33 H13        -7.4403   -4.5478   -2.2256 H         1 <1>         0.0000 
     34 H14        -9.0838   -1.9730   -1.9144 H         1 <1>         0.0000 
     35 H15        -8.3264   -2.9012    1.7674 H         1 <1>         0.0000 
     36 H16        -9.7537   -5.1069   -0.8348 H         1 <1>         0.0000 
     37 H17       -10.1427   -4.4966    0.7946 H         1 <1>         0.0000 
     38 H18        -8.5841   -5.3314    0.4980 H         1 <1>         0.0000 
     39 H19        -6.7155    0.0175   -0.6297 H         1 <1>         0.0000 
@<TRIPOS>BOND
     1    2    1 1    
     2    2    3 1    
     3    3    4 1    
     4    4    5 2    
     5    6    5 1    
     6    1    6 1    
     7    3    7 2    
     8    5    8 1    
     9    1    9 1    
    10    1   10 1    
    11    2   11 1    
    12    2   12 1    
    13    4   13 1    
    14    6   14 1    
    15    6   15 1    
    16    8   16 1    
    17    8   17 1    
    18    8   18 1    
    19   15   19 2    
    20   19   20 1    
    21   20   21 2    
    22   21   22 1    
    23   20   23 1    
    24   22   24 2    
    25   22   25 1    
    26    9   26 1    
    27    9   27 1    
    28    9   28 1    
    29   10   29 1    
    30   10   30 1    
    31   10   31 1    
    32   14   32 1    
    33   15   33 1    
    34   19   34 1    
    35   21   35 1    
    36   23   36 1    
    37   23   37 1    
    38   23   38 1    
    39   25   39 1    
@<TRIPOS>SUBSTRUCTURE
     1 ****        2 TEMP              0 ****  ****    0 ROOT 
@<TRIPOS>NORMAL
@<TRIPOS>FF_PBC
FORCE_FIELD_SETUP_FEATURE Force Field Setup information
v1.0  0 0.000000 0.000000 0.000000 0.000000 0.000000 0.000000 NONE 0 0 0 0 0 0 0 0 0 0 0 0 0
@<TRIPOS>RENDERING_ATTRS
ANTIALIASED_LINES 
*
