#	Name:			PISM00942
#	Creating user name:	baoopengkun
#	Creation time:		Wed Dec 12 22:41:34 2018

#	Modifying user name:	baoopengkun
#	Modification time:	Wed Dec 12 23:14:24 2018

@<TRIPOS>MOLECULE
PISM00942
   20    20     1     2     0
SMALL
GAST_HUCK


@<TRIPOS>ATOM
      1 C1          4.4087   -4.8306    5.1683 C.3       1 <1>         0.0211 
      2 C2          3.4090   -5.7777    5.7736 C.2       1 <1>         0.1065 
      3 C3          3.5709   -6.6573    6.7603 C.2       1 <1>         0.0033 
      4 C4          2.2909   -7.4209    7.0328 C.3       1 <1>         0.1539 
      5 O5          1.3320   -6.8386    6.1281 O.3       1 <1>        -0.3014 
      6 C6          2.0060   -5.9458    5.4148 C.2       1 <1>         0.3142 
      7 C7          4.8203   -6.9379    7.5584 C.3       1 <1>        -0.0314 
      8 C8          1.7683   -7.2828    8.4820 C.3       1 <1>        -0.0504 
      9 O9          1.4830   -5.2982    4.5234 O.2       1 <1>        -0.3160 
     10 O10         2.4195   -8.7901    6.6341 O.3       1 <1>        -0.4270 
     11 H1          5.2460   -5.3990    4.7371 H         1 <1>         0.0617 
     12 H2          4.7917   -4.1478    5.9412 H         1 <1>         0.0617 
     13 H3          3.9369   -4.2355    4.3719 H         1 <1>         0.0617 
     14 H4          5.6601   -6.3185    7.2116 H         1 <1>         0.0389 
     15 H5          5.1082   -7.9941    7.4558 H         1 <1>         0.0389 
     16 H6          4.6467   -6.7152    8.6212 H         1 <1>         0.0389 
     17 H7          3.0133   -9.2806    7.1899 H         1 <1>         0.1890 
     18 H8          1.6652   -6.2185    8.7423 H         1 <1>         0.0121 
     19 H9          2.4542   -7.7638    9.1949 H         1 <1>         0.0121 
     20 H10         0.7831   -7.7665    8.5607 H         1 <1>         0.0121 
@<TRIPOS>BOND
     1    2    1 1    
     2    2    3 2    
     3    3    4 1    
     4    4    5 1    
     5    5    6 1    
     6    2    6 1    
     7    3    7 1    
     8    4    8 1    
     9    6    9 2    
    10    4   10 1    
    11    1   11 1    
    12    1   12 1    
    13    1   13 1    
    14    7   14 1    
    15    7   15 1    
    16    7   16 1    
    17   10   17 1    
    18    8   18 1    
    19    8   19 1    
    20    8   20 1    
@<TRIPOS>SUBSTRUCTURE
     1 ****        2 TEMP              0 ****  ****    0 ROOT 
@<TRIPOS>NORMAL
@<TRIPOS>FF_PBC
FORCE_FIELD_SETUP_FEATURE Force Field Setup information
v1.0  0 0.000000 0.000000 0.000000 0.000000 0.000000 0.000000 NONE 0 0 0 0 1 0 0 0 0 0 0 0 0
@<TRIPOS>RENDERING_ATTRS
ANTIALIASED_LINES 
1,2,3,4,5,6,7,8,9,10,11,12,13,14,15,16,17
