#	Name:			PISM00979
#	Creating user name:	baoopengkun
#	Creation time:		Fri Jan 11 17:56:21 2019

#	Modifying user name:	baoopengkun
#	Modification time:	Fri Jan 11 18:00:19 2019

@<TRIPOS>MOLECULE
PISM00979
   25    26     1     1     0
SMALL
GAST_HUCK


@<TRIPOS>ATOM
      1 H1         -5.4572    3.3839    0.8933 H         1 <1>         0.0589 
      2 C2         -4.4400    3.0726    1.1122 C.ar      1 <1>        -0.0635 
      3 C3         -3.7575    3.6163    2.2010 C.ar      1 <1>        -0.0641 
      4 C4         -2.4453    3.2191    2.4734 C.ar      1 <1>        -0.0575 
      5 C5         -1.7644    2.3371    1.6211 C.ar      1 <1>        -0.0092 
      6 C6         -2.4832    1.7427    0.5725 C.ar      1 <1>        -0.0187 
      7 C7         -3.8061    2.1217    0.3106 C.ar      1 <1>        -0.0563 
      8 C8         -0.4037    2.0220    1.7883 C.ar      1 <1>         0.0925 
      9 C9          0.1313    0.9216    1.1076 C.ar      1 <1>         0.1163 
     10 C10        -0.5797    0.3391    0.0551 C.ar      1 <1>        -0.0188 
     11 C11        -1.8812    0.7600   -0.2207 C.ar      1 <1>        -0.0502 
     12 O12         1.3872    0.4254    1.4848 O.3       1 <1>        -0.3131 
     13 C13         1.5043   -0.9915    1.7237 C.3       1 <1>         0.0622 
     14 C14         0.5405    2.8277    2.6646 C.2       1 <1>         0.2489 
     15 O15         0.2741    3.9759    2.9748 O.2       1 <1>        -0.3684 
     16 O16         1.7058    2.3597    3.1205 O.3       1 <1>        -0.2967 
     17 H2         -4.2489    4.3458    2.8380 H         1 <1>         0.0618 
     18 H3         -1.9833    3.6084    3.3722 H         1 <1>         0.0591 
     19 H4         -4.3552    1.6816   -0.5165 H         1 <1>         0.0627 
     20 H5         -0.1301   -0.4318   -0.5596 H         1 <1>         0.0606 
     21 H6         -2.4173    0.3128   -1.0527 H         1 <1>         0.0671 
     22 H7          0.7706   -1.3161    2.4779 H         1 <1>         0.0583 
     23 H8          2.5152   -1.1855    2.1121 H         1 <1>         0.0583 
     24 H9          1.3756   -1.5881    0.8093 H         1 <1>         0.0583 
     25 H10         1.8979    1.4807    2.8162 H         1 <1>         0.2516 
@<TRIPOS>BOND
     1    2    1 1    
     2    2    3 ar   
     3    3    4 ar   
     4    4    5 ar   
     5    5    6 ar   
     6    6    7 ar   
     7    2    7 ar   
     8    5    8 ar   
     9    8    9 ar   
    10    9   10 ar   
    11   10   11 ar   
    12    6   11 ar   
    13    9   12 1    
    14   12   13 1    
    15    8   14 1    
    16   14   15 2    
    17   14   16 1    
    18    3   17 1    
    19    4   18 1    
    20    7   19 1    
    21   10   20 1    
    22   11   21 1    
    23   13   22 1    
    24   13   23 1    
    25   13   24 1    
    26   16   25 1    
@<TRIPOS>SUBSTRUCTURE
     1 ****        2 TEMP              0 ****  ****    0 ROOT 
@<TRIPOS>NORMAL
@<TRIPOS>FF_PBC
FORCE_FIELD_SETUP_FEATURE Force Field Setup information
v1.0  0 0.000000 0.000000 0.000000 0.000000 0.000000 0.000000 NONE 0 0 0 0 1 0 0 0 0 0 0 0 0
