#	Name:			PISM00050
#	Creating user name:	baoopengkun
#	Creation time:		Thu Dec 27 16:22:21 2018

#	Modifying user name:	baoopengkun
#	Modification time:	Thu Dec 27 16:23:45 2018

@<TRIPOS>MOLECULE
PISM00050
   34    35     1     1     0
SMALL
GAST_HUCK


@<TRIPOS>ATOM
      1 C1          2.6677    3.5617  -13.9037 C.ar      1 <1>        -0.0834 
      2 C2          3.5331    3.1158  -14.9059 C.ar      1 <1>        -0.0829 
      3 C3          3.0182    2.7460  -16.1511 C.ar      1 <1>        -0.0427 
      4 C4          1.6425    2.8055  -16.3890 C.ar      1 <1>         0.1196 
      5 C5          0.7687    3.2389  -15.3837 C.ar      1 <1>         0.0916 
      6 C6          1.2933    3.6387  -14.1482 C.ar      1 <1>        -0.0481 
      7 O7          1.1461    2.4225  -17.6355 O.3       1 <1>        -0.2618 
      8 C8          0.9525    3.5309  -18.5230 C.3       1 <1>         0.3642 
      9 F9         -0.0187    4.3418  -18.0186 F         1 <1>        -0.1741 
     10 F10         2.1079    4.2338  -18.6686 F         1 <1>        -0.1741 
     11 N11        -0.5649    3.2777  -15.6284 N.pl3     1 <1>        -0.2402 
     12 C12        -1.4433    2.8226  -14.7726 C.2       1 <1>         0.2293 
     13 O13        -1.1225    2.3227  -13.7070 O.2       1 <1>        -0.3775 
     14 C14        -2.9114    2.9042  -15.1290 C.3       1 <1>         0.1645 
     15 O15        -3.7598    2.4687  -14.0488 O.3       1 <1>        -0.2948 
     16 C16        -5.1218    2.5099  -14.3433 C.ar      1 <1>         0.0975 
     17 C17        -5.8511    3.6801  -14.1169 C.ar      1 <1>        -0.0300 
     18 C18        -7.2133    3.7256  -14.4282 C.ar      1 <1>        -0.0611 
     19 C19        -7.8469    2.5985  -14.9602 C.ar      1 <1>         0.0012 
     20 C20        -7.1190    1.4243  -15.1756 C.ar      1 <1>        -0.0611 
     21 C21        -5.7567    1.3798  -14.8647 C.ar      1 <1>        -0.0300 
     22 Br22       -9.6504    2.6605  -15.3788 Br        1 <1>        -0.0600 
     23 H1          3.0637    3.8508  -12.9348 H         1 <1>         0.0492 
     24 H2          4.6010    3.0576  -14.7183 H         1 <1>         0.0487 
     25 H3          3.6846    2.4100  -16.9386 H         1 <1>         0.0505 
     26 H4          0.6391    4.0208  -13.3715 H         1 <1>         0.0495 
     27 H5          0.6315    3.1554  -19.5064 H         1 <1>         0.1415 
     28 H6         -0.8808    3.6568  -16.5340 H         1 <1>         0.2078 
     29 H7         -3.0795    2.2675  -16.0112 H         1 <1>         0.0868 
     30 H8         -3.1496    3.9487  -15.3827 H         1 <1>         0.0868 
     31 H9         -5.3558    4.5503  -13.6989 H         1 <1>         0.0549 
     32 H10        -7.7790    4.6358  -14.2566 H         1 <1>         0.0615 
     33 H11        -7.6114    0.5474  -15.5838 H         1 <1>         0.0615 
     34 H12        -5.1875    0.4702  -15.0261 H         1 <1>         0.0549 
@<TRIPOS>BOND
     1    2    1 ar   
     2    2    3 ar   
     3    3    4 ar   
     4    4    5 ar   
     5    5    6 ar   
     6    1    6 ar   
     7    4    7 1    
     8    7    8 1    
     9    8    9 1    
    10    8   10 1    
    11    5   11 1    
    12   11   12 1    
    13   12   13 2    
    14   12   14 1    
    15   14   15 1    
    16   15   16 1    
    17   16   17 ar   
    18   17   18 ar   
    19   18   19 ar   
    20   19   20 ar   
    21   20   21 ar   
    22   16   21 ar   
    23   19   22 1    
    24    1   23 1    
    25    2   24 1    
    26    3   25 1    
    27    6   26 1    
    28    8   27 1    
    29   11   28 1    
    30   14   29 1    
    31   14   30 1    
    32   17   31 1    
    33   18   32 1    
    34   20   33 1    
    35   21   34 1    
@<TRIPOS>SUBSTRUCTURE
     1 ****        2 TEMP              0 ****  ****    0 ROOT 
@<TRIPOS>NORMAL
@<TRIPOS>FF_PBC
FORCE_FIELD_SETUP_FEATURE Force Field Setup information
v1.0  0 0.000000 0.000000 0.000000 0.000000 0.000000 0.000000 NONE 0 0 0 0 1 0 0 0 0 0 0 0 0
