#	Name:			PISM00820.1
#	Creating user name:	baoopengkun
#	Creation time:		Wed Jan 09 15:46:48 2019

#	Modifying user name:	baoopengkun
#	Modification time:	Wed Jan 09 15:47:11 2019

@<TRIPOS>MOLECULE
PISM00820.1
   32    33     1     2     0
SMALL
GAST_HUCK


@<TRIPOS>ATOM
      1 C1         -0.1651   -2.6020    3.7337 C.ar      1 <1>        -0.0739 
      2 C2          0.6622   -3.4157    4.5135 C.ar      1 <1>        -0.0421 
      3 C3          0.1676   -4.5809    5.1166 C.ar      1 <1>         0.1262 
      4 C4         -1.1772   -4.9154    4.9017 C.ar      1 <1>        -0.0421 
      5 C5         -2.0000   -4.1162    4.1023 C.ar      1 <1>        -0.0739 
      6 C6         -1.5041   -2.9441    3.5225 C.ar      1 <1>        -0.0424 
      7 N7          0.9695   -5.3646    5.8880 N.pl3     1 <1>         0.1186 
      8 O8          2.1229   -5.0267    6.0456 O.2       1 <1>        -0.1140 
      9 O9          0.4929   -6.3636    6.3821 O.2       1 <1>        -0.1140 
     10 C10        -2.3910   -2.0533    2.6756 C.2       1 <1>         0.0432 
     11 C11        -1.8338   -1.5410    1.4056 C.2       1 <1>         0.1021 
     12 O12        -2.4091   -0.6995    0.7357 O.2       1 <1>        -0.3837 
     13 C13        -3.6308   -1.7607    3.0949 C.2       1 <1>         0.0977 
     14 O14        -4.4325   -0.9874    2.3460 O.3       1 <1>        -0.2535 
     15 C15        -5.7512   -0.7846    2.8863 C.3       1 <1>         0.2446 
     16 C16        -6.5473   -2.0707    2.8563 C.2       1 <1>         0.0002 
     17 C17        -7.5793   -1.9640    2.0215 C.2       1 <1>         0.0294 
     18 C18        -7.4669   -0.6028    1.5130 C.2       1 <1>         0.2496 
     19 O19        -6.4529    0.1046    1.9944 O.3       1 <1>        -0.2294 
     20 C20        -8.6129   -2.9991    1.6707 C.3       1 <1>        -0.0323 
     21 O21        -8.2550   -0.1387    0.7072 O.2       1 <1>        -0.3691 
     22 H1          0.2408   -1.6944    3.2975 H         1 <1>         0.0531 
     23 H2          1.6990   -3.1221    4.6434 H         1 <1>         0.0508 
     24 H3         -1.6044   -5.8058    5.3519 H         1 <1>         0.0508 
     25 H4         -3.0272   -4.4213    3.9289 H         1 <1>         0.0531 
     26 H5         -0.8800   -1.9128    1.0333 H         1 <1>         0.1254 
     27 H6         -3.9521   -2.1644    4.0569 H         1 <1>         0.1282 
     28 H7         -5.7312   -0.3261    3.8896 H         1 <1>         0.1224 
     29 H8         -6.3148   -2.9673    3.4291 H         1 <1>         0.0707 
     30 H9         -8.1818   -4.0099    1.7291 H         1 <1>         0.0347 
     31 H10        -8.9811   -2.8284    0.6479 H         1 <1>         0.0347 
     32 H11        -9.4569   -2.9251    2.3722 H         1 <1>         0.0347 
@<TRIPOS>BOND
     1    2    1 ar   
     2    2    3 ar   
     3    3    4 ar   
     4    4    5 ar   
     5    5    6 ar   
     6    1    6 ar   
     7    3    7 1    
     8    7    8 2    
     9    7    9 2    
    10    6   10 1    
    11   10   11 1    
    12   11   12 2    
    13   10   13 2    
    14   13   14 1    
    15   14   15 1    
    16   15   16 1    
    17   16   17 2    
    18   17   18 1    
    19   18   19 1    
    20   15   19 1    
    21   17   20 1    
    22   18   21 2    
    23    1   22 1    
    24    2   23 1    
    25    4   24 1    
    26    5   25 1    
    27   11   26 1    
    28   13   27 1    
    29   15   28 1    
    30   16   29 1    
    31   20   30 1    
    32   20   31 1    
    33   20   32 1    
@<TRIPOS>SUBSTRUCTURE
     1 ****        2 TEMP              0 ****  ****    0 ROOT 
@<TRIPOS>NORMAL
@<TRIPOS>FF_PBC
FORCE_FIELD_SETUP_FEATURE Force Field Setup information
v1.0  0 0.000000 0.000000 0.000000 0.000000 0.000000 0.000000 NONE 0 0 0 0 1 0 0 0 0 0 0 0 0
@<TRIPOS>RENDERING_ATTRS
ANTIALIASED_LINES 
*
