#	Name:			PISM00007
#	Creating user name:	baoopengkun
#	Creation time:		Tue Dec 11 21:31:02 2018

#	Modifying user name:	baoopengkun
#	Modification time:	Tue Dec 11 21:33:16 2018

@<TRIPOS>MOLECULE
PISM00007
   37    38     1     1     0
SMALL
GAST_HUCK


@<TRIPOS>ATOM
      1 C1         14.2152  -14.7076    0.8560 C.ar      1 <1>        -0.0678 
      2 C2         15.1205  -14.0996   -0.0188 C.ar      1 <1>        -0.0497 
      3 C3         16.4275  -13.8355    0.4005 C.ar      1 <1>         0.0177 
      4 C4         16.8306  -14.1812    1.6934 C.ar      1 <1>        -0.0497 
      5 C5         15.9257  -14.7892    2.5686 C.ar      1 <1>        -0.0678 
      6 C6         14.6178  -15.0517    2.1500 C.ar      1 <1>        -0.0687 
      7 S7         17.5678  -13.0418   -0.7008 S.3       1 <1>        -0.0800 
      8 C8         17.1644  -11.3256   -0.2488 C.3       1 <1>         0.0966 
      9 C9         18.0312  -10.4006   -1.0625 C.2       1 <1>         0.1898 
     10 O10        17.4938   -9.6203   -1.8305 O.2       1 <1>        -0.3958 
     11 N11        19.3737  -10.4646   -0.9077 N.am      1 <1>        -0.2766 
     12 C12        20.2606   -9.5779   -1.6612 C.3       1 <1>         0.0628 
     13 C13        20.8207   -8.4917   -0.7332 C.ar      1 <1>         0.0083 
     14 C14        22.1692   -8.1215   -0.7966 C.ar      1 <1>         0.0943 
     15 C15        22.6789   -7.1629    0.0835 C.ar      1 <1>        -0.0396 
     16 C16        21.8387   -6.5460    1.0143 C.ar      1 <1>        -0.0776 
     17 C17        20.4858   -6.8922    1.0627 C.ar      1 <1>        -0.0797 
     18 C18        19.9793   -7.8587    0.1890 C.ar      1 <1>        -0.0669 
     19 O19        23.0122   -8.7071   -1.7415 O.3       1 <1>        -0.3249 
     20 C20        23.1834   -7.9180   -2.9297 C.3       1 <1>         0.0578 
     21 H1         13.1998  -14.9125    0.5308 H         1 <1>         0.0600 
     22 H2         14.8090  -13.8321   -1.0234 H         1 <1>         0.0565 
     23 H3         17.8461  -13.9771    2.0172 H         1 <1>         0.0565 
     24 H4         16.2385  -15.0577    3.5731 H         1 <1>         0.0600 
     25 H5         13.9146  -15.5232    2.8299 H         1 <1>         0.0559 
     26 H6         17.3555  -11.1633    0.8220 H         1 <1>         0.0642 
     27 H7         16.0999  -11.1374   -0.4558 H         1 <1>         0.0642 
     28 H8         19.7907  -11.1005   -0.2550 H         1 <1>         0.1875 
     29 H9         19.7538   -9.0703   -2.4970 H         1 <1>         0.0660 
     30 H10        21.0748  -10.1821   -2.0923 H         1 <1>         0.0660 
     31 H11        23.7306   -6.8998    0.0406 H         1 <1>         0.0521 
     32 H12        22.2355   -5.8003    1.6965 H         1 <1>         0.0531 
     33 H13        19.8279   -6.4098    1.7794 H         1 <1>         0.0505 
     34 H14        18.9254   -8.1134    0.2303 H         1 <1>         0.0526 
     35 H15        23.6359   -6.9420   -2.6944 H         1 <1>         0.0574 
     36 H16        22.2178   -7.7592   -3.4350 H         1 <1>         0.0574 
     37 H17        23.8534   -8.4617   -3.6118 H         1 <1>         0.0574 
@<TRIPOS>BOND
     1    2    1 ar   
     2    2    3 ar   
     3    3    4 ar   
     4    4    5 ar   
     5    5    6 ar   
     6    1    6 ar   
     7    3    7 1    
     8    7    8 1    
     9    8    9 1    
    10    9   10 2    
    11    9   11 am   
    12   11   12 1    
    13   12   13 1    
    14   13   14 ar   
    15   14   15 ar   
    16   15   16 ar   
    17   16   17 ar   
    18   17   18 ar   
    19   13   18 ar   
    20   14   19 1    
    21   19   20 1    
    22    1   21 1    
    23    2   22 1    
    24    4   23 1    
    25    5   24 1    
    26    6   25 1    
    27    8   26 1    
    28    8   27 1    
    29   11   28 1    
    30   12   29 1    
    31   12   30 1    
    32   15   31 1    
    33   16   32 1    
    34   17   33 1    
    35   18   34 1    
    36   20   35 1    
    37   20   36 1    
    38   20   37 1    
@<TRIPOS>SUBSTRUCTURE
     1 ****        2 TEMP              0 ****  ****    0 ROOT 
@<TRIPOS>NORMAL
@<TRIPOS>FF_PBC
FORCE_FIELD_SETUP_FEATURE Force Field Setup information
v1.0  0 0.000000 0.000000 0.000000 0.000000 0.000000 0.000000 NONE 0 0 0 0 1 0 0 0 0 0 0 0 0
