#	Name:			PISM00958.1
#	Creating user name:	baoopengkun
#	Creation time:		Thu Dec 13 10:35:31 2018

#	Modifying user name:	baoopengkun
#	Modification time:	Thu Dec 13 10:46:30 2018

@<TRIPOS>MOLECULE
PISM00958.1
   41    43     1     1     0
SMALL
GAST_HUCK


@<TRIPOS>ATOM
      1 C1         -9.8474    8.2666   -5.3259 C.ar      1 <1>        -0.0318 
      2 C2        -10.2777    9.5804   -5.5254 C.ar      1 <1>        -0.0199 
      3 C3        -11.6225    9.8303   -5.8056 C.ar      1 <1>         0.0694 
      4 C4        -12.5330    8.7722   -5.8700 C.ar      1 <1>        -0.0229 
      5 C5        -12.1223    7.4540   -5.6295 C.ar      1 <1>        -0.0185 
      6 C6        -10.7624    7.2117   -5.3936 C.ar      1 <1>        -0.0369 
      7 C7        -13.1454    6.2952   -5.6387 C.3       1 <1>         0.0876 
      8 O8        -14.4945    6.7976   -5.6760 O.3       1 <1>        -0.4201 
      9 C9        -12.9572    5.4617   -6.9359 C.3       1 <1>        -0.0350 
     10 C10       -12.9902    5.3951   -4.3752 C.3       1 <1>         0.0827 
     11 N11       -14.1340    4.5096   -4.2112 N.pl3     1 <1>        -0.1836 
     12 N12       -15.2826    4.7910   -3.5340 N.2       1 <1>        -0.1909 
     13 C13       -16.1092    3.8123   -3.5145 C.2       1 <1>         0.0618 
     14 N14       -15.3727    2.8232   -4.2520 N.2       1 <1>        -0.2870 
     15 C15       -14.2615    3.2813   -4.6120 C.2       1 <1>         0.1269 
     16 C16       -13.1115    6.3233   -8.2168 C.3       1 <1>        -0.0237 
     17 C17       -12.9781    5.4222   -9.4525 C.ar      1 <1>        -0.0434 
     18 C18       -11.7224    5.1922  -10.0262 C.ar      1 <1>        -0.0597 
     19 C19       -11.6020    4.3811  -11.1585 C.ar      1 <1>        -0.0546 
     20 C20       -12.7369    3.7907  -11.7203 C.ar      1 <1>         0.0330 
     21 C21       -13.9916    4.0103  -11.1460 C.ar      1 <1>        -0.0546 
     22 C22       -14.1108    4.8210  -10.0134 C.ar      1 <1>        -0.0597 
     23 Cl23      -12.5870    2.7771  -13.1412 Cl        1 <1>        -0.0771 
     24 Cl24      -12.1674   11.4729   -6.0780 Cl        1 <1>        -0.0626 
     25 H1         -8.8001    8.0659   -5.1192 H         1 <1>         0.0698 
     26 H2         -9.5732   10.4038   -5.4658 H         1 <1>         0.0862 
     27 H3        -13.5643    8.9970   -6.1169 H         1 <1>         0.0857 
     28 H4        -10.3940    6.2006   -5.2649 H         1 <1>         0.0852 
     29 H5        -14.7580    7.2278   -4.8687 H         1 <1>         0.1963 
     30 H6        -13.7204    4.6679   -6.9616 H         1 <1>         0.0220 
     31 H7        -11.9642    4.9848   -6.9424 H         1 <1>         0.0220 
     32 H8        -12.9530    6.0383   -3.4824 H         1 <1>         0.0572 
     33 H9        -12.0704    4.7930   -4.4002 H         1 <1>         0.0572 
     34 H10       -17.0972    3.7491   -3.0610 H         1 <1>         0.0863 
     35 H11       -13.5248    2.7110   -5.1762 H         1 <1>         0.1361 
     36 H12       -12.3407    7.1087   -8.2559 H         1 <1>         0.0420 
     37 H13       -14.0943    6.8212   -8.2230 H         1 <1>         0.0420 
     38 H14       -10.8342    5.6416   -9.5935 H         1 <1>         0.0557 
     39 H15       -10.6274    4.2080  -11.6033 H         1 <1>         0.0606 
     40 H16       -14.8725    3.5498  -11.5811 H         1 <1>         0.0606 
     41 H17       -15.0888    4.9801   -9.5699 H         1 <1>         0.0557 
@<TRIPOS>BOND
     1    2    1 ar   
     2    2    3 ar   
     3    3    4 ar   
     4    4    5 ar   
     5    5    6 ar   
     6    1    6 ar   
     7    5    7 1    
     8    7    8 1    
     9    7    9 1    
    10    7   10 1    
    11   10   11 1    
    12   11   12 1    
    13   12   13 2    
    14   13   14 1    
    15   14   15 2    
    16   11   15 1    
    17    9   16 1    
    18   16   17 1    
    19   17   18 ar   
    20   18   19 ar   
    21   19   20 ar   
    22   20   21 ar   
    23   21   22 ar   
    24   17   22 ar   
    25   20   23 1    
    26    3   24 1    
    27    1   25 1    
    28    2   26 1    
    29    4   27 1    
    30    6   28 1    
    31    8   29 1    
    32    9   30 1    
    33    9   31 1    
    34   10   32 1    
    35   10   33 1    
    36   13   34 1    
    37   15   35 1    
    38   16   36 1    
    39   16   37 1    
    40   18   38 1    
    41   19   39 1    
    42   21   40 1    
    43   22   41 1    
@<TRIPOS>SUBSTRUCTURE
     1 ****        2 TEMP              0 ****  ****    0 ROOT 
@<TRIPOS>NORMAL
@<TRIPOS>FF_PBC
FORCE_FIELD_SETUP_FEATURE Force Field Setup information
v1.0  0 0.000000 0.000000 0.000000 0.000000 0.000000 0.000000 NONE 0 0 0 0 1 0 0 0 0 0 0 0 0
