#	Name:			PISM00892.1
#	Creating user name:	baoopengkun
#	Creation time:		Sat Jan 12 22:18:59 2019

#	Modifying user name:	baoopengkun
#	Modification time:	Sat Jan 12 22:20:53 2019

@<TRIPOS>MOLECULE
PISM00892.1
   34    37     1     1     0
SMALL
GAST_HUCK


@<TRIPOS>ATOM
      1 C1         -3.0424  -12.0183   -2.6076 C.ar      1 <1>         0.0656 
      2 C2         -2.2383  -12.3711   -3.6962 C.ar      1 <1>        -0.0390 
      3 C3         -1.3672  -11.4318   -4.2546 C.ar      1 <1>        -0.0523 
      4 C4         -1.2952  -10.1413   -3.7229 C.ar      1 <1>        -0.0463 
      5 C5         -2.1012   -9.7813   -2.6366 C.ar      1 <1>        -0.0067 
      6 C6         -2.9766  -10.7238   -2.0831 C.ar      1 <1>         0.0177 
      7 C7         -3.7920  -10.3791   -1.0006 C.ar      1 <1>         0.0656 
      8 C8         -3.7328   -9.0874   -0.4670 C.ar      1 <1>        -0.0390 
      9 C9         -2.8600   -8.1444   -1.0157 C.ar      1 <1>        -0.0523 
     10 C10        -2.0438   -8.4911   -2.0961 C.ar      1 <1>        -0.0463 
     11 C11        -4.7298  -11.4162   -0.4218 C.2       1 <1>         0.2611 
     12 O12        -5.4314  -11.1184    0.5306 O.2       1 <1>        -0.3759 
     13 N13        -4.7756  -12.6527   -0.9539 N.am      1 <1>        -0.0450 
     14 C14        -3.9893  -13.0197   -1.9833 C.2       1 <1>         0.2611 
     15 O15        -4.0266  -14.1582   -2.4198 O.2       1 <1>        -0.3759 
     16 O16        -6.0685  -14.0393   -0.1715 O.3       1 <1>        -0.1776 
     17 C17        -5.3545  -14.8775    0.7377 C.3       1 <1>         0.2485 
     18 O18        -6.2498  -15.8607    1.2960 O.3       1 <1>        -0.2324 
     19 C19        -6.3025  -15.5863    2.5937 C.2       1 <1>         0.2492 
     20 O20        -6.9910  -16.2343    3.3635 O.2       1 <1>        -0.3691 
     21 C21        -5.4752  -14.4679    3.0331 C.2       1 <1>         0.0289 
     22 C22        -4.8948  -14.0468    1.9112 C.2       1 <1>        -0.0037 
     23 C23        -5.3222  -13.9163    4.4244 C.3       1 <1>        -0.0323 
     24 H1         -2.2874  -13.3735   -4.1114 H         1 <1>         0.0700 
     25 H2         -0.7464  -11.7060   -5.1026 H         1 <1>         0.0635 
     26 H3         -0.6086   -9.4240   -4.1622 H         1 <1>         0.0685 
     27 H4         -4.3636   -8.8124    0.3738 H         1 <1>         0.0700 
     28 H5         -2.8165   -7.1415   -0.6015 H         1 <1>         0.0635 
     29 H6         -1.3670   -7.7493   -2.5096 H         1 <1>         0.0685 
     30 H7         -4.5159  -15.3678    0.2181 H         1 <1>         0.1175 
     31 H8         -4.1948  -13.2154    1.8481 H         1 <1>         0.0702 
     32 H9         -5.4227  -12.8206    4.4059 H         1 <1>         0.0347 
     33 H10        -4.3323  -14.1818    4.8229 H         1 <1>         0.0347 
     34 H11        -6.0971  -14.3326    5.0852 H         1 <1>         0.0347 
@<TRIPOS>BOND
     1    2    1 ar   
     2    2    3 ar   
     3    3    4 ar   
     4    4    5 ar   
     5    5    6 ar   
     6    1    6 ar   
     7    6    7 ar   
     8    7    8 ar   
     9    8    9 ar   
    10    9   10 ar   
    11    5   10 ar   
    12    7   11 1    
    13   11   12 2    
    14   11   13 am   
    15   13   14 am   
    16   14   15 2    
    17    1   14 1    
    18   13   16 1    
    19   16   17 1    
    20   17   18 1    
    21   18   19 1    
    22   19   20 2    
    23   19   21 1    
    24   21   22 2    
    25   21   23 1    
    26   17   22 1    
    27    2   24 1    
    28    3   25 1    
    29    4   26 1    
    30    8   27 1    
    31    9   28 1    
    32   10   29 1    
    33   17   30 1    
    34   22   31 1    
    35   23   32 1    
    36   23   33 1    
    37   23   34 1    
@<TRIPOS>SUBSTRUCTURE
     1 ****        2 TEMP              0 ****  ****    0 ROOT 
@<TRIPOS>NORMAL
@<TRIPOS>FF_PBC
FORCE_FIELD_SETUP_FEATURE Force Field Setup information
v1.0  0 0.000000 0.000000 0.000000 0.000000 0.000000 0.000000 NONE 0 0 0 0 1 0 0 0 0 0 0 0 0
