#	Name:			PISM00423
#	Creating user name:	malab
#	Creation time:		Wed Apr 10 23:27:48 2019

#	Modifying user name:	malab
#	Modification time:	Wed Apr 10 23:31:24 2019

@<TRIPOS>MOLECULE
PISM00423
   39    39     1     2     0
SMALL
USER_CHARGES


@<TRIPOS>ATOM
      1 C1        -13.7960   -0.2074    7.9856 C.3       1 <1>         0.0000 
      2 C2        -13.3371    1.2732    8.1218 C.3       1 <1>         0.0000 
      3 C3        -13.7119    1.8003    9.4779 C.2       1 <1>         0.0000 
      4 C4        -14.9162    1.2964   10.1554 C.2       1 <1>         0.0000 
      5 C5        -15.6855    0.3454    9.6081 C.2       1 <1>         0.0000 
      6 C6        -15.3409   -0.2747    8.2644 C.3       1 <1>         0.0000 
      7 C7        -12.9999   -1.0866    9.0021 C.3       1 <1>         0.0000 
      8 C8        -13.4332   -0.7061    6.5532 C.3       1 <1>         0.0000 
      9 O9        -13.0200    2.6482   10.0192 O.2       1 <1>         0.0000 
     10 C10       -16.9490   -0.1341   10.2921 C.3       1 <1>         0.0000 
     11 F11       -12.0825   -0.7494    6.3946 F         1 <1>         0.0000 
     12 H1        -13.8181    1.9132    7.3666 H         1 <1>         0.0000 
     13 H2        -12.2469    1.3474    7.9827 H         1 <1>         0.0000 
     14 C14       -15.8297   -1.7131    8.2506 C.2       1 <1>         0.0000 
     15 O15       -16.0805    0.5740    7.3655 O.3       1 <1>         0.0000 
     16 H3        -15.1677    1.7302   11.1231 H         1 <1>         0.0000 
     17 H4        -13.1378   -2.1579    8.7958 H         1 <1>         0.0000 
     18 H5        -13.3097   -0.8947   10.0396 H         1 <1>         0.0000 
     19 H6        -11.9204   -0.8833    8.9334 H         1 <1>         0.0000 
     20 H7        -13.8103   -0.0381    5.7661 H         1 <1>         0.0000 
     21 F21       -13.9360   -1.9488    6.3231 F         1 <1>         0.0000 
     22 H9        -17.7687   -0.1961    9.5605 H         1 <1>         0.0000 
     23 H10       -17.2677    0.5481   11.0944 H         1 <1>         0.0000 
     24 H11       -16.7901   -1.1269   10.7371 H         1 <1>         0.0000 
     25 C25       -16.6710   -2.2479    7.3552 C.2       1 <1>         0.0000 
     26 H12       -15.4753   -2.3669    9.0463 H         1 <1>         0.0000 
     27 H13       -15.9775    0.3721    6.4442 H         1 <1>         0.0000 
     28 H14       -17.0757   -1.6548    6.5391 H         1 <1>         0.0000 
     29 C29       -17.0956   -3.6635    7.4115 C.2       1 <1>         0.0000 
     30 C30       -18.3705   -4.0293    7.2059 C.2       1 <1>         0.0000 
     31 C31       -19.5176   -3.1322    6.9543 C.2       1 <1>         0.0000 
     32 C32       -16.0551   -4.7240    7.6964 C.3       1 <1>         0.0000 
     33 O33       -20.5604   -3.6170    6.5400 O.2       1 <1>         0.0000 
     34 O34       -19.4150   -1.8196    7.1912 O.3       1 <1>         0.0000 
     35 H15       -18.6119   -5.0929    7.2301 H         1 <1>         0.0000 
     36 H16       -15.0372   -4.3417    7.5253 H         1 <1>         0.0000 
     37 H17       -16.1965   -5.5989    7.0433 H         1 <1>         0.0000 
     38 H18       -16.1412   -5.0458    8.7453 H         1 <1>         0.0000 
     39 H19       -20.2090   -1.3322    6.9977 H         1 <1>         0.0000 
@<TRIPOS>BOND
     1    2    1 1    
     2    2    3 1    
     3    3    4 1    
     4    4    5 2    
     5    5    6 1    
     6    1    6 1    
     7    1    7 1    
     8    1    8 1    
     9    3    9 2    
    10    5   10 1    
    11    8   11 1    
    12    2   12 1    
    13    2   13 1    
    14    6   14 1    
    15    6   15 1    
    16    4   16 1    
    17    7   17 1    
    18    7   18 1    
    19    7   19 1    
    20    8   20 1    
    21    8   21 1    
    22   10   22 1    
    23   10   23 1    
    24   10   24 1    
    25   14   25 2    
    26   14   26 1    
    27   15   27 1    
    28   25   28 1    
    29   25   29 1    
    30   29   30 2    
    31   30   31 1    
    32   29   32 1    
    33   31   33 2    
    34   31   34 1    
    35   30   35 1    
    36   32   36 1    
    37   32   37 1    
    38   32   38 1    
    39   34   39 1    
@<TRIPOS>SUBSTRUCTURE
     1 ****        2 TEMP              0 ****  ****    0 ROOT 
@<TRIPOS>NORMAL
@<TRIPOS>FF_PBC
FORCE_FIELD_SETUP_FEATURE Force Field Setup information
v1.0  0 0.000000 0.000000 0.000000 0.000000 0.000000 0.000000 NONE 0 0 0 0 0 0 0 0 0 0 0 0 0
@<TRIPOS>RENDERING_ATTRS
ANTIALIASED_LINES 
*
