#	Name:			PISM00825
#	Creating user name:	baoopengkun
#	Creation time:		Sat Dec 15 02:41:55 2018

#	Modifying user name:	baoopengkun
#	Modification time:	Sat Dec 15 02:47:18 2018

@<TRIPOS>MOLECULE
PISM00825
   52    55     1     1     0
SMALL
GAST_HUCK


@<TRIPOS>ATOM
      1 C1          0.1957   21.6242  -43.2544 C.ar      1 <1>        -0.0667 
      2 C2         -0.5437   20.9812  -44.2534 C.ar      1 <1>        -0.0756 
      3 C3         -0.4383   21.3865  -45.5905 C.ar      1 <1>        -0.0755 
      4 C4          0.4139   22.4360  -45.9525 C.ar      1 <1>        -0.0655 
      5 C5          1.1718   23.0511  -44.9542 C.ar      1 <1>        -0.0295 
      6 C6          1.0461   22.6666  -43.6259 C.ar      1 <1>        -0.0366 
      7 C7          1.9240   23.5173  -42.7215 C.3       1 <1>         0.0122 
      8 C8          2.2765   24.7199  -43.6456 C.3       1 <1>         0.1095 
      9 C9          2.1878   24.1771  -45.1025 C.3       1 <1>         0.0504 
     10 O10         3.6287   25.1418  -43.4278 O.3       1 <1>        -0.2748 
     11 C11         4.3589   24.4662  -44.3040 C.2       1 <1>         0.2375 
     12 C12         3.6040   23.7056  -45.3168 C.2       1 <1>         0.0631 
     13 O13         5.5695   24.5559  -44.2203 O.2       1 <1>        -0.3779 
     14 C14         3.8330   22.7863  -46.2754 C.2       1 <1>         0.0808 
     15 C15         6.2128   22.5215  -45.9023 C.3       1 <1>         0.2229 
     16 C16         6.8326   23.7689  -46.4912 C.2       1 <1>        -0.0055 
     17 C17         7.9860   23.5100  -47.1108 C.2       1 <1>         0.0226 
     18 C18         8.2171   22.0696  -47.0048 C.2       1 <1>         0.2239 
     19 N19         7.1924   21.5302  -46.3288 N.am      1 <1>        -0.1181 
     20 C20         8.8731   24.5110  -47.8006 C.3       1 <1>        -0.0329 
     21 O21         9.1891   21.5010  -47.4716 O.2       1 <1>        -0.3854 
     22 O22         5.0008   22.1917  -46.5920 O.3       1 <1>        -0.2744 
     23 C23         7.0204   20.2207  -46.0472 C.2       1 <1>         0.3573 
     24 O24         7.7942   19.3435  -46.3896 O.2       1 <1>        -0.3680 
     25 O25         5.8982   20.0026  -45.3443 O.3       1 <1>        -0.2535 
     26 C26         5.5643   18.6347  -45.0208 C.3       1 <1>         0.0910 
     27 C27         5.3066   17.7754  -46.2924 C.3       1 <1>        -0.0320 
     28 C28         6.6153   17.9690  -44.0859 C.3       1 <1>        -0.0320 
     29 C29         4.2259   18.7792  -44.2417 C.3       1 <1>        -0.0320 
     30 H1          0.1131   21.3229  -42.2153 H         1 <1>         0.0537 
     31 H2         -1.2055   20.1620  -43.9890 H         1 <1>         0.0541 
     32 H3         -1.0239   20.8825  -46.3533 H         1 <1>         0.0541 
     33 H4          0.4822   22.7654  -46.9840 H         1 <1>         0.0538 
     34 H5          2.8193   22.9290  -42.4665 H         1 <1>         0.0443 
     35 H6          1.4081   23.8248  -41.7985 H         1 <1>         0.0443 
     36 H7          1.5606   25.5422  -43.4761 H         1 <1>         0.0707 
     37 H8          1.8937   24.9468  -45.8337 H         1 <1>         0.0565 
     38 H9          3.0071   22.4322  -46.8904 H         1 <1>         0.1079 
     39 H10         6.1522   22.4542  -44.8051 H         1 <1>         0.1171 
     40 H11         6.4109   24.7715  -46.4451 H         1 <1>         0.0696 
     41 H12         9.6926   24.0003  -48.3283 H         1 <1>         0.0348 
     42 H13         9.3020   25.1970  -47.0550 H         1 <1>         0.0348 
     43 H14         8.2878   25.0909  -48.5299 H         1 <1>         0.0348 
     44 H15         4.6085   18.3020  -46.9606 H         1 <1>         0.0260 
     45 H16         4.8645   16.8065  -46.0150 H         1 <1>         0.0260 
     46 H17         6.2301   17.5707  -46.8511 H         1 <1>         0.0260 
     47 H18         6.8262   18.6319  -43.2332 H         1 <1>         0.0260 
     48 H19         7.5620   17.7598  -44.6025 H         1 <1>         0.0260 
     49 H20         6.2300   17.0128  -43.7007 H         1 <1>         0.0260 
     50 H21         3.4687   19.2698  -44.8733 H         1 <1>         0.0260 
     51 H22         4.3743   19.3989  -43.3437 H         1 <1>         0.0260 
     52 H23         3.8364   17.7986  -43.9281 H         1 <1>         0.0260 
@<TRIPOS>BOND
     1    1    2 ar   
     2    3    2 ar   
     3    4    3 ar   
     4    5    4 ar   
     5    5    6 ar   
     6    6    1 ar   
     7    6    7 1    
     8    8    7 1    
     9    9    8 1    
    10    9    5 1    
    11    8   10 1    
    12   11   10 1    
    13   12   11 1    
    14   12    9 1    
    15   11   13 2    
    16   14   12 2    
    17   22   14 1    
    18   15   16 1    
    19   16   17 2    
    20   18   17 1    
    21   19   18 am   
    22   15   19 1    
    23   17   20 1    
    24   18   21 2    
    25   15   22 1    
    26   19   23 am   
    27   23   24 2    
    28   23   25 1    
    29   25   26 1    
    30   26   27 1    
    31   26   28 1    
    32   26   29 1    
    33    1   30 1    
    34    2   31 1    
    35    3   32 1    
    36    4   33 1    
    37    7   34 1    
    38    7   35 1    
    39    8   36 1    
    40    9   37 1    
    41   14   38 1    
    42   15   39 1    
    43   16   40 1    
    44   20   41 1    
    45   20   42 1    
    46   20   43 1    
    47   27   44 1    
    48   27   45 1    
    49   27   46 1    
    50   28   47 1    
    51   28   48 1    
    52   28   49 1    
    53   29   50 1    
    54   29   51 1    
    55   29   52 1    
@<TRIPOS>SUBSTRUCTURE
     1 ****       15 TEMP              0 ****  ****    0 ROOT 
@<TRIPOS>NORMAL
@<TRIPOS>FF_PBC
FORCE_FIELD_SETUP_FEATURE Force Field Setup information
v1.0  0 0.000000 0.000000 0.000000 0.000000 0.000000 0.000000 NONE 0 0 0 0 1 0 0 0 0 0 0 0 0
