#	Name:			PISM01002
#	Creating user name:	baoopengkun
#	Creation time:		Fri Jan 11 22:43:54 2019

#	Modifying user name:	baoopengkun
#	Modification time:	Fri Jan 11 22:48:39 2019

@<TRIPOS>MOLECULE
PISM01002
   49    52     1     1     0
SMALL
GAST_HUCK


@<TRIPOS>ATOM
      1 C1         15.7367    0.6023  -12.1308 C.ar      1 <1>        -0.0371 
      2 C2         16.4516    1.1612  -13.1993 C.ar      1 <1>        -0.0523 
      3 C3         16.8978    0.3678  -14.2677 C.ar      1 <1>        -0.0523 
      4 C4         16.6385   -1.0089  -14.3029 C.ar      1 <1>        -0.0371 
      5 C5         15.9288   -1.5511  -13.2329 C.ar      1 <1>         0.0734 
      6 C6         15.4945   -0.7702  -12.1725 C.ar      1 <1>         0.0734 
      7 C7         14.7949   -1.7207  -11.2315 C.2       1 <1>         0.2422 
      8 O8         14.3195   -1.3727  -10.1653 O.2       1 <1>        -0.3668 
      9 N9         13.7943   -3.3951   -8.8642 N.pl3     1 <1>        -0.2376 
     10 C10        15.4672   -2.9509  -12.9161 C.2       1 <1>         0.2422 
     11 O11        15.6739   -3.9163  -13.6310 O.2       1 <1>        -0.3668 
     12 C12        13.1045   -3.3715   -7.6966 C.ar      1 <1>         0.0617 
     13 C13        12.8226   -2.1446   -7.0854 C.ar      1 <1>        -0.0381 
     14 C14        12.1217   -2.0976   -5.8767 C.ar      1 <1>        -0.0456 
     15 C15        11.7104   -3.2801   -5.2553 C.ar      1 <1>         0.0961 
     16 C16        11.9765   -4.5071   -5.8698 C.ar      1 <1>        -0.0456 
     17 C17        12.6811   -4.5538   -7.0763 C.ar      1 <1>        -0.0381 
     18 S18        10.8577   -3.2074   -3.6960 S.o2      1 <1>         0.0653 
     19 O19        10.7176   -4.5490   -3.1659 O.2       1 <1>        -0.1516 
     20 N20        11.9497   -2.4034   -2.7496 N.am      1 <1>        -0.2310 
     21 C21        11.5318   -1.3173   -1.8719 C.3       1 <1>         0.0530 
     22 C22        12.5083   -0.1355   -2.0888 C.3       1 <1>         0.0647 
     23 O23        13.8766   -0.5699   -1.9470 O.3       1 <1>        -0.3766 
     24 C24        14.2302   -1.5975   -2.8954 C.3       1 <1>         0.0647 
     25 C25        13.3367   -2.8461   -2.6962 C.3       1 <1>         0.0530 
     26 C26        13.4253   -4.1302   -9.8801 C.2       1 <1>         0.2277 
     27 O27        12.4237   -4.8256   -9.8385 O.2       1 <1>        -0.3768 
     28 C28        14.2363   -4.1895  -11.1616 C.3       1 <1>         0.1502 
     29 N29        14.8058   -2.9715  -11.7414 N.am      1 <1>        -0.1642 
     30 H1         15.3824    1.2076  -11.3026 H         1 <1>         0.0682 
     31 H2         16.6630    2.2267  -13.2000 H         1 <1>         0.0662 
     32 H3         17.4525    0.8257  -15.0818 H         1 <1>         0.0662 
     33 H4         16.9727   -1.6349  -15.1237 H         1 <1>         0.0682 
     34 H5         14.6136   -2.7772   -8.9581 H         1 <1>         0.2109 
     35 H6         13.1475   -1.2208   -7.5544 H         1 <1>         0.0529 
     36 H7         11.8931   -1.1432   -5.4150 H         1 <1>         0.0605 
     37 H8         11.6381   -5.4279   -5.4067 H         1 <1>         0.0605 
     38 H9         12.9053   -5.5181   -7.5213 H         1 <1>         0.0529 
     39 H10        11.6026   -1.6625   -0.8281 H         1 <1>         0.0501 
     40 H11        10.4979   -0.9874   -2.0558 H         1 <1>         0.0501 
     41 H12        12.3175    0.6482   -1.3385 H         1 <1>         0.0576 
     42 O42         9.6763   -2.3878   -3.8790 O.2       1 <1>        -0.1516 
     43 H13        12.3480    0.3014   -3.0882 H         1 <1>         0.0576 
     44 H14        15.2862   -1.8643   -2.7333 H         1 <1>         0.0576 
     45 H15        14.1282   -1.2192   -3.9255 H         1 <1>         0.0576 
     46 H16        13.5312   -3.2773   -1.7016 H         1 <1>         0.0501 
     47 H17        13.5696   -3.6131   -3.4508 H         1 <1>         0.0501 
     48 H18        13.5919   -4.6412  -11.9335 H         1 <1>         0.0824 
     49 H19        15.0569   -4.8960  -10.9689 H         1 <1>         0.0824 
@<TRIPOS>BOND
     1    1    2 ar   
     2    3    2 ar   
     3    4    3 ar   
     4    5    4 ar   
     5    5    6 ar   
     6    6    1 ar   
     7    6    7 1    
     8    7    8 2    
     9    9   12 1    
    10   26    9 1    
    11   10   11 2    
    12   10    5 1    
    13   26   27 2    
    14   12   13 ar   
    15   13   14 ar   
    16   14   15 ar   
    17   16   15 ar   
    18   17   16 ar   
    19   12   17 ar   
    20   15   18 1    
    21   18   19 2    
    22   18   20 1    
    23   20   21 1    
    24   21   22 1    
    25   22   23 1    
    26   24   23 1    
    27   25   24 1    
    28   20   25 1    
    29   28   26 1    
    30   29   28 1    
    31   10   29 am   
    32    7   29 am   
    33    1   30 1    
    34    2   31 1    
    35    3   32 1    
    36    4   33 1    
    37    9   34 1    
    38   13   35 1    
    39   14   36 1    
    40   16   37 1    
    41   17   38 1    
    42   21   39 1    
    43   21   40 1    
    44   22   41 1    
    45   18   42 2    
    46   22   43 1    
    47   24   44 1    
    48   24   45 1    
    49   25   46 1    
    50   25   47 1    
    51   28   48 1    
    52   28   49 1    
@<TRIPOS>SUBSTRUCTURE
     1 ****        2 TEMP              0 ****  ****    0 ROOT 
@<TRIPOS>NORMAL
@<TRIPOS>FF_PBC
FORCE_FIELD_SETUP_FEATURE Force Field Setup information
v1.0  0 0.000000 0.000000 0.000000 0.000000 0.000000 0.000000 NONE 0 0 0 0 1 0 0 0 0 0 0 0 0
