#	Name:			PISM00554
#	Creating user name:	baoopengkun
#	Creation time:		Sat Dec 15 14:51:35 2018

#	Modifying user name:	baoopengkun
#	Modification time:	Sat Dec 15 15:01:32 2018

@<TRIPOS>MOLECULE
PISM00554
   36    37     1     1     0
SMALL
GAST_HUCK


@<TRIPOS>ATOM
      1 C1          6.7526    9.8518   19.1547 C.3       1 <1>        -0.0559 
      2 C2          7.9601   10.9475   17.2146 C.3       1 <1>        -0.0559 
      3 O3         -2.2400    4.7003   18.8890 O.3       1 <1>        -0.3396 
      4 H1          7.6108    9.1837   19.3247 H         1 <1>         0.0238 
      5 H2          5.8477    9.3388   19.5117 H         1 <1>         0.0238 
      6 H3          6.8955   10.7544   19.7684 H         1 <1>         0.0238 
      7 C7          5.4371   11.1802   17.4142 C.3       1 <1>         0.0215 
      8 C8          6.6473   10.2299   17.6462 C.3       1 <1>        -0.0065 
      9 C9          6.4500    8.9496   16.7841 C.3       1 <1>         0.0215 
     10 C10         5.1334    8.2813   17.0733 C.2       1 <1>         0.1087 
     11 C11         3.9661    9.0426   17.5597 C.2       1 <1>         0.0851 
     12 C12         4.1262   10.5025   17.7115 C.2       1 <1>         0.1087 
     13 O13         3.1847   11.1824   18.0864 O.2       1 <1>        -0.4051 
     14 O14         5.0229    7.0763   16.9038 O.2       1 <1>        -0.4051 
     15 C15         2.8048    8.4337   17.8529 C.2       1 <1>         0.0671 
     16 N16         2.6289    7.1402   17.7274 N.pl3     1 <1>        -0.2595 
     17 C17         1.4536    6.5354   18.0326 C.ar      1 <1>         0.0616 
     18 C18         0.7341    6.8748   19.1849 C.ar      1 <1>        -0.0436 
     19 C19        -0.4968    6.2677   19.4513 C.ar      1 <1>        -0.0409 
     20 C20        -1.0064    5.2885   18.5951 C.ar      1 <1>         0.0774 
     21 C21        -0.2697    4.9176   17.4635 C.ar      1 <1>        -0.0409 
     22 C22         0.9507    5.5412   17.1862 C.ar      1 <1>        -0.0436 
     23 H4          8.8285   10.2870   17.3617 H         1 <1>         0.0238 
     24 H5          8.1157   11.8608   17.8095 H         1 <1>         0.0238 
     25 H6          7.9205   11.2321   16.1519 H         1 <1>         0.0238 
     26 H7         -2.5346    4.0634   18.2480 H         1 <1>         0.2448 
     27 H8          5.4001   11.5267   16.3701 H         1 <1>         0.0481 
     28 H9          5.5379   12.0641   18.0637 H         1 <1>         0.0481 
     29 H10         7.2652    8.2386   16.9916 H         1 <1>         0.0481 
     30 H11         6.4696    9.1881   15.7098 H         1 <1>         0.0481 
     31 H12         1.9890    9.0702   18.2019 H         1 <1>         0.1315 
     32 H13         3.4057    6.5538   17.3620 H         1 <1>         0.2255 
     33 H14         1.1267    7.6022   19.8876 H         1 <1>         0.0522 
     34 H34        -0.6374    4.1471   16.7935 H         1 <1>         0.0519 
     35 H35         1.5102    5.2522   16.3019 H         1 <1>         0.0522 
     36 H15        -1.0649    6.5533   20.3306 H         1 <1>         0.0519 
@<TRIPOS>BOND
     1    8    1 1    
     2    8    2 1    
     3   20    3 1    
     4    1    4 1    
     5    1    5 1    
     6    1    6 1    
     7    2   23 1    
     8    7    8 1    
     9    8    9 1    
    10    9   10 1    
    11   11   10 1    
    12   12   11 1    
    13    7   12 1    
    14   12   13 2    
    15   10   14 2    
    16   11   15 2    
    17   15   16 1    
    18   16   17 1    
    19   17   18 ar   
    20   18   19 ar   
    21   19   20 ar   
    22   21   20 ar   
    23   22   21 ar   
    24   17   22 ar   
    25    2   24 1    
    26    2   25 1    
    27    3   26 1    
    28    7   27 1    
    29    7   28 1    
    30    9   29 1    
    31    9   30 1    
    32   15   31 1    
    33   16   32 1    
    34   18   33 1    
    35   21   34 1    
    36   22   35 1    
    37   19   36 1    
@<TRIPOS>SUBSTRUCTURE
     1 ****        7 TEMP              0 ****  ****    0 ROOT 
@<TRIPOS>NORMAL
@<TRIPOS>FF_PBC
FORCE_FIELD_SETUP_FEATURE Force Field Setup information
v1.0  0 0.000000 0.000000 0.000000 0.000000 0.000000 0.000000 NONE 0 0 0 0 1 0 0 0 0 0 0 0 0
