#	Name:			PISM00664
#	Creating user name:	baoopengkun
#	Creation time:		Sun Jan 20 22:54:19 2019

#	Modifying user name:	baoopengkun
#	Modification time:	Sun Jan 20 22:56:46 2019

@<TRIPOS>MOLECULE
PISM00664
   48    51     1     2     0
SMALL
GAST_HUCK


@<TRIPOS>ATOM
      1 C1        -15.0181   14.4198  -11.9510 C.ar      1 <1>        -0.0347 
      2 C2        -14.6826   13.0626  -11.9618 C.ar      1 <1>        -0.0322 
      3 C3        -13.9161   12.5228  -10.9250 C.ar      1 <1>        -0.0340 
      4 C4        -13.4922   13.3408   -9.8739 C.ar      1 <1>        -0.0322 
      5 C5        -13.8362   14.6955   -9.8611 C.ar      1 <1>        -0.0347 
      6 C6        -14.5886   15.2441  -10.9056 C.ar      1 <1>         0.0080 
      7 C7        -14.9306   16.7408  -10.9106 C.3       1 <1>         0.1933 
      8 C8        -16.2959   16.9708  -10.2210 C.3       1 <1>         0.1080 
      9 N9        -16.7307   18.3546  -10.3349 N.pl3     1 <1>        -0.1812 
     10 N10       -16.7821   19.2812   -9.3373 N.2       1 <1>        -0.1908 
     11 C11       -17.2307   20.4158   -9.7288 C.2       1 <1>         0.0618 
     12 N12       -17.4855   20.1421  -11.1165 N.2       1 <1>        -0.2870 
     13 C13       -17.1835   18.9557  -11.3921 C.2       1 <1>         0.1270 
     14 O14       -14.9114   17.2533  -12.2586 O.3       1 <1>        -0.3804 
     15 C15       -14.0168   18.3760  -12.2843 C.3       1 <1>         0.0675 
     16 C16       -12.9777   17.9369  -11.2358 C.3       1 <1>         0.1003 
     17 O17       -13.8956   17.4747  -10.2398 O.3       1 <1>        -0.3747 
     18 C18       -12.0454   16.8185  -11.7776 C.3       1 <1>         0.0952 
     19 O19       -11.4259   16.1495  -10.6627 O.3       1 <1>        -0.3192 
     20 C20       -10.4895   15.1440  -10.9228 C.ar      1 <1>         0.1202 
     21 C21       -10.7985   14.0644  -11.7589 C.ar      1 <1>        -0.0415 
     22 C22        -9.8353   13.0889  -12.0326 C.ar      1 <1>        -0.0819 
     23 C23        -8.5662   13.1753  -11.4539 C.ar      1 <1>        -0.0819 
     24 C24        -8.2663   14.2342  -10.5927 C.ar      1 <1>        -0.0411 
     25 C25        -9.2269   15.2131  -10.3244 C.ar      1 <1>         0.1290 
     26 O26        -8.9241   16.2568   -9.4522 O.3       1 <1>        -0.2300 
     27 C27        -8.3219   17.3735  -10.1173 C.3       1 <1>         0.5442 
     28 F28        -9.1598   17.8822  -11.0604 F         1 <1>        -0.1403 
     29 F29        -8.0570   18.3340   -9.1928 F         1 <1>        -0.1403 
     30 F30        -7.1575   16.9914  -10.7088 F         1 <1>        -0.1403 
     31 H1        -13.6492   11.4703  -10.9360 H         1 <1>         0.0856 
     32 H32       -15.6128   14.8344  -12.7591 H         1 <1>         0.0852 
     33 H2        -15.0169   12.4275  -12.7769 H         1 <1>         0.0698 
     34 H3        -12.8944   12.9257   -9.0682 H         1 <1>         0.0698 
     35 H4        -13.5114   15.3221   -9.0360 H         1 <1>         0.0852 
     36 H5        -16.2092   16.7073   -9.1563 H         1 <1>         0.0597 
     37 H6        -17.0541   16.3230  -10.6863 H         1 <1>         0.0597 
     38 H7        -17.3786   21.3341   -9.1626 H         1 <1>         0.0863 
     39 H8        -17.2889   18.5066  -12.3792 H         1 <1>         0.1361 
     40 H9        -14.5358   19.2825  -11.9323 H         1 <1>         0.0576 
     41 H10       -13.5976   18.5582  -13.2852 H         1 <1>         0.0576 
     42 H11       -12.3756   18.7678  -10.8335 H         1 <1>         0.0635 
     43 H12       -11.2774   17.2712  -12.4239 H         1 <1>         0.0635 
     44 H13       -12.6261   16.1177  -12.3915 H         1 <1>         0.0635 
     45 H14       -11.7838   13.9659  -12.1977 H         1 <1>         0.0509 
     46 H15       -10.0734   12.2614  -12.6943 H         1 <1>         0.0495 
     47 H16        -7.8162   12.4208  -11.6712 H         1 <1>         0.0495 
     48 H17        -7.2873   14.2990  -10.1293 H         1 <1>         0.0509 
@<TRIPOS>BOND
     1    2    1 ar   
     2    2    3 ar   
     3    3    4 ar   
     4    4    5 ar   
     5    5    6 ar   
     6    1    6 ar   
     7    6    7 1    
     8    7    8 1    
     9    8    9 1    
    10    9   10 1    
    11   10   11 2    
    12   11   12 1    
    13   12   13 2    
    14    9   13 1    
    15    7   14 1    
    16   14   15 1    
    17   15   16 1    
    18   16   17 1    
    19    7   17 1    
    20   16   18 1    
    21   18   19 1    
    22   19   20 1    
    23   20   21 ar   
    24   21   22 ar   
    25   22   23 ar   
    26   23   24 ar   
    27   24   25 ar   
    28   20   25 ar   
    29   25   26 1    
    30   26   27 1    
    31   27   28 1    
    32   27   29 1    
    33   27   30 1    
    34    3   31 1    
    35    1   32 1    
    36    2   33 1    
    37    4   34 1    
    38    5   35 1    
    39    8   36 1    
    40    8   37 1    
    41   11   38 1    
    42   13   39 1    
    43   15   40 1    
    44   15   41 1    
    45   16   42 1    
    46   18   43 1    
    47   18   44 1    
    48   21   45 1    
    49   22   46 1    
    50   23   47 1    
    51   24   48 1    
@<TRIPOS>SUBSTRUCTURE
     1 ****        2 TEMP              0 ****  ****    0 ROOT 
@<TRIPOS>NORMAL
@<TRIPOS>FF_PBC
FORCE_FIELD_SETUP_FEATURE Force Field Setup information
v1.0  0 0.000000 0.000000 0.000000 0.000000 0.000000 0.000000 NONE 0 0 0 0 1 0 0 0 0 0 0 0 0
@<TRIPOS>RENDERING_ATTRS
ANTIALIASED_LINES 
*
