#	Name:			PISM01184
#	Creating user name:	baoopengkun
#	Creation time:		Tue Dec 18 21:54:01 2018

#	Modifying user name:	baoopengkun
#	Modification time:	Tue Dec 18 21:55:37 2018

@<TRIPOS>MOLECULE
PISM01184
   33    33     1     1     0
SMALL
GAST_HUCK


@<TRIPOS>ATOM
      1 C1          8.8976   26.4437  -33.5813 C.3       1 <1>        -0.0481 
      2 C2          9.2674   27.8969  -33.7530 C.2       1 <1>        -0.0998 
      3 C3         10.5337   28.3251  -33.8534 C.2       1 <1>        -0.0912 
      4 C4         10.9064   29.7785  -34.0249 C.3       1 <1>        -0.0204 
      5 C5         11.6976   30.2175  -32.8158 C.2       1 <1>        -0.0908 
      6 C6         11.3005   31.1980  -31.9927 C.2       1 <1>        -0.0944 
      7 C7         12.0936   31.6333  -30.7823 C.3       1 <1>        -0.0200 
      8 C8         12.6281   33.0733  -30.9917 C.3       1 <1>         0.0306 
      9 C9         13.4090   33.5629  -29.7999 C.2       1 <1>         0.1406 
     10 O10        13.5567   32.8935  -28.7898 O.2       1 <1>        -0.3884 
     11 C11        13.9993   34.9414  -29.8681 C.3       1 <1>         0.1779 
     12 C12        13.0625   35.9924  -29.1302 C.3       1 <1>         0.1923 
     13 O13        13.2573   35.9374  -30.5231 O.3       1 <1>        -0.3236 
     14 H14        15.0594   35.1108  -29.6283 H         1 <1>         0.0887 
     15 H15        13.5193   36.8900  -28.6888 H         1 <1>         0.0896 
     16 C16        11.6890   35.5553  -28.6778 C.2       1 <1>         0.2080 
     17 O17        10.7089   36.1542  -29.0863 O.2       1 <1>        -0.3941 
     18 N18        11.5621   34.5209  -27.8224 N.am      1 <1>        -0.2985 
     19 H1          8.2546   26.1309  -34.4178 H         1 <1>         0.0355 
     20 H2          8.3403   26.3193  -32.6406 H         1 <1>         0.0355 
     21 H3          9.7781   25.7838  -33.5538 H         1 <1>         0.0355 
     22 H4          8.4460   28.6139  -33.7932 H         1 <1>         0.0455 
     23 H5         11.3525   27.6055  -33.8097 H         1 <1>         0.0463 
     24 H6         10.0151   30.4077  -34.1751 H         1 <1>         0.0511 
     25 H7         11.5380   29.8811  -34.9211 H         1 <1>         0.0511 
     26 H8         12.6359   29.6956  -32.6227 H         1 <1>         0.0463 
     27 H9         10.3639   31.7229  -32.1862 H         1 <1>         0.0459 
     28 H10        12.9438   30.9587  -30.5900 H         1 <1>         0.0415 
     29 H11        11.4348   31.6052  -29.8991 H         1 <1>         0.0415 
     30 H12        11.7813   33.7581  -31.1589 H         1 <1>         0.0515 
     31 H13        13.2807   33.0990  -31.8785 H         1 <1>         0.0515 
     32 H16        12.3560   34.0117  -27.4832 H         1 <1>         0.1815 
     33 H17        10.6441   34.2490  -27.5343 H         1 <1>         0.1815 
@<TRIPOS>BOND
     1    2    1 1    
     2    2    3 2    
     3    3    4 1    
     4    4    5 1    
     5    5    6 2    
     6    6    7 1    
     7    7    8 1    
     8    8    9 1    
     9    9   10 2    
    10    9   11 1    
    11   11   12 1    
    12   12   13 1    
    13   11   13 1    
    14   11   14 1    
    15   12   15 1    
    16   12   16 1    
    17   16   17 2    
    18   16   18 am   
    19    1   19 1    
    20    1   20 1    
    21    1   21 1    
    22    2   22 1    
    23    3   23 1    
    24    4   24 1    
    25    4   25 1    
    26    5   26 1    
    27    6   27 1    
    28    7   28 1    
    29    7   29 1    
    30    8   30 1    
    31    8   31 1    
    32   18   32 1    
    33   18   33 1    
@<TRIPOS>SUBSTRUCTURE
     1 ****        2 TEMP              0 ****  ****    0 ROOT 
@<TRIPOS>NORMAL
@<TRIPOS>FF_PBC
FORCE_FIELD_SETUP_FEATURE Force Field Setup information
v1.0  0 0.000000 0.000000 0.000000 0.000000 0.000000 0.000000 NONE 0 0 0 0 1 0 0 0 0 0 0 0 0
