#	Name:			PISM00589
#	Creating user name:	baoopengkun
#	Creation time:		Mon Dec 10 12:07:03 2018

#	Modifying user name:	baoopengkun
#	Modification time:	Mon Dec 10 12:07:14 2018

@<TRIPOS>MOLECULE
PISM00589
   39    41     1     2     0
SMALL
GAST_HUCK


@<TRIPOS>ATOM
      1 C1         -2.8374    9.0996   -4.3462 C.ar      1 <1>        -0.0206 
      2 C2         -4.2156    9.3270   -4.3069 C.ar      1 <1>         0.0694 
      3 C3         -5.0816    8.5014   -5.0289 C.ar      1 <1>        -0.0199 
      4 C4         -4.5683    7.4439   -5.7853 C.ar      1 <1>        -0.0318 
      5 C5         -3.1895    7.2163   -5.8207 C.ar      1 <1>        -0.0346 
      6 C6         -2.3181    8.0530   -5.1154 C.ar      1 <1>         0.0085 
      7 C7         -0.8020    7.8190   -5.1863 C.3       1 <1>         0.1932 
      8 C8         -0.3897    6.8009   -4.0941 C.3       1 <1>         0.1080 
      9 N9          1.0053    6.3803   -4.1145 N.pl3     1 <1>        -0.1812 
     10 N10         1.5336    5.3356   -3.4164 N.2       1 <1>        -0.1908 
     11 C11         2.7854    5.1659   -3.6289 C.2       1 <1>         0.0618 
     12 N12         3.0437    6.2242   -4.5652 N.2       1 <1>        -0.2870 
     13 C13         1.9937    6.8712   -4.7995 C.2       1 <1>         0.1270 
     14 O14        -0.0731    9.0484   -5.0803 O.3       1 <1>        -0.3804 
     15 C15        -0.2431    9.7265   -6.3287 C.3       1 <1>         0.0650 
     16 C16        -0.2478    8.5415   -7.3272 C.3       1 <1>         0.0731 
     17 O17        -0.4142    7.3816   -6.4957 O.3       1 <1>        -0.3774 
     18 H18        -6.1512    8.6829   -4.9999 H         1 <1>         0.0862 
     19 C19        -1.3600    8.6493   -8.4038 C.3       1 <1>        -0.0257 
     20 C20        -1.3555    7.4088   -9.3372 C.3       1 <1>        -0.0535 
     21 C21        -2.4833    7.4974  -10.3977 C.3       1 <1>        -0.0652 
     22 H22        -2.1723    9.7397   -3.7760 H         1 <1>         0.0858 
     23 Cl23       -4.8579   10.6477   -3.3522 Cl        1 <1>        -0.0626 
     24 H3         -5.2397    6.7994   -6.3452 H         1 <1>         0.0698 
     25 H4         -2.7949    6.3870   -6.3998 H         1 <1>         0.0853 
     26 H5         -0.9978    5.8918   -4.2131 H         1 <1>         0.0597 
     27 H6         -0.5962    7.2390   -3.1066 H         1 <1>         0.0597 
     28 H7          3.4650    4.4231   -3.2140 H         1 <1>         0.0863 
     29 H8          1.9634    7.7141   -5.4866 H         1 <1>         0.1361 
     30 H9          0.5673   10.4508   -6.5040 H         1 <1>         0.0575 
     31 H10        -1.2051   10.2627   -6.3274 H         1 <1>         0.0575 
     32 H11         0.7377    8.4451   -7.8119 H         1 <1>         0.0608 
     33 H12        -1.1915    9.5613   -8.9992 H         1 <1>         0.0290 
     34 H13        -2.3437    8.7333   -7.9173 H         1 <1>         0.0290 
     35 H14        -1.4972    6.4945   -8.7374 H         1 <1>         0.0263 
     36 H15        -0.3816    7.3357   -9.8493 H         1 <1>         0.0263 
     37 H16        -2.4602    6.6101  -11.0502 H         1 <1>         0.0230 
     38 H17        -2.3537    8.3951  -11.0221 H         1 <1>         0.0230 
     39 H18        -3.4682    7.5457   -9.9074 H         1 <1>         0.0230 
@<TRIPOS>BOND
     1    2    1 ar   
     2    2    3 ar   
     3    3    4 ar   
     4    4    5 ar   
     5    5    6 ar   
     6    1    6 ar   
     7    6    7 1    
     8    7    8 1    
     9    8    9 1    
    10    9   10 1    
    11   10   11 2    
    12   11   12 1    
    13   12   13 2    
    14    9   13 1    
    15    7   14 1    
    16   14   15 1    
    17   15   16 1    
    18   16   17 1    
    19    7   17 1    
    20    3   18 1    
    21   16   19 1    
    22   19   20 1    
    23   20   21 1    
    24    1   22 1    
    25    2   23 1    
    26    4   24 1    
    27    5   25 1    
    28    8   26 1    
    29    8   27 1    
    30   11   28 1    
    31   13   29 1    
    32   15   30 1    
    33   15   31 1    
    34   16   32 1    
    35   19   33 1    
    36   19   34 1    
    37   20   35 1    
    38   20   36 1    
    39   21   37 1    
    40   21   38 1    
    41   21   39 1    
@<TRIPOS>SUBSTRUCTURE
     1 ****        2 TEMP              0 ****  ****    0 ROOT 
@<TRIPOS>NORMAL
@<TRIPOS>FF_PBC
FORCE_FIELD_SETUP_FEATURE Force Field Setup information
v1.0  0 0.000000 0.000000 0.000000 0.000000 0.000000 0.000000 NONE 0 0 0 0 1 0 0 0 0 0 0 0 0
@<TRIPOS>RENDERING_ATTRS
ANTIALIASED_LINES 
*
