#	Name:			PISM01167
#	Creating user name:	baoopengkun
#	Creation time:		Tue Dec 18 16:42:10 2018

#	Modifying user name:	baoopengkun
#	Modification time:	Tue Dec 18 16:43:10 2018

@<TRIPOS>MOLECULE
PISM01167
   20    22     1     1     0
SMALL
GAST_HUCK


@<TRIPOS>ATOM
      1 C1         13.2570   22.0196  -10.3833 C.3       1 <1>        -0.0214 
      2 C2         12.5249   22.1016   -9.0086 C.3       1 <1>        -0.0214 
      3 C3         11.4439   23.1840   -9.2724 C.3       1 <1>         0.0830 
      4 C4         11.9425   24.6457   -9.3277 C.3       1 <1>         0.1140 
      5 C5         13.2100   24.5061  -10.1659 C.3       1 <1>         0.1140 
      6 C6         12.7660   23.3222  -11.0686 C.3       1 <1>         0.0830 
      7 O7         11.3913   23.1070  -10.7070 O.3       1 <1>        -0.3675 
      8 C8         12.4984   25.6659   -8.3925 C.2       1 <1>         0.2722 
      9 O9         12.3510   25.6807   -7.1832 O.2       1 <1>        -0.3626 
     10 O10        13.1778   26.5777   -9.1128 O.3       1 <1>        -0.1681 
     11 C11        13.3951   25.9849  -10.3042 C.2       1 <1>         0.2722 
     12 O12        13.7145   26.5625  -11.3283 O.2       1 <1>        -0.3626 
     13 H1         12.9007   21.1551  -10.9699 H         1 <1>         0.0293 
     14 H2         14.3528   21.9462  -10.2925 H         1 <1>         0.0293 
     15 H3         13.1781   22.4113   -8.1772 H         1 <1>         0.0293 
     16 H4         12.0641   21.1323   -8.7569 H         1 <1>         0.0293 
     17 H5         10.4829   23.0446   -8.7505 H         1 <1>         0.0627 
     18 H6         11.1198   25.2055   -9.8201 H         1 <1>         0.0613 
     19 H7         14.1169   24.2130   -9.6070 H         1 <1>         0.0613 
     20 H8         12.9960   23.4120  -12.1421 H         1 <1>         0.0627 
@<TRIPOS>BOND
     1    2    1 1    
     2    2    3 1    
     3    3    4 1    
     4    4    5 1    
     5    5    6 1    
     6    1    6 1    
     7    3    7 1    
     8    6    7 1    
     9    4    8 1    
    10    8    9 2    
    11    8   10 1    
    12   10   11 1    
    13   11   12 2    
    14    5   11 1    
    15    1   13 1    
    16    1   14 1    
    17    2   15 1    
    18    2   16 1    
    19    3   17 1    
    20    4   18 1    
    21    5   19 1    
    22    6   20 1    
@<TRIPOS>SUBSTRUCTURE
     1 ****        2 TEMP              0 ****  ****    0 ROOT 
@<TRIPOS>NORMAL
@<TRIPOS>FF_PBC
FORCE_FIELD_SETUP_FEATURE Force Field Setup information
v1.0  0 0.000000 0.000000 0.000000 0.000000 0.000000 0.000000 NONE 0 0 0 0 1 0 0 0 0 0 0 0 0
