#	Name:			PISM01189
#	Creating user name:	baoopengkun
#	Creation time:		Tue Dec 18 22:03:56 2018

#	Modifying user name:	baoopengkun
#	Modification time:	Tue Dec 18 22:06:45 2018

@<TRIPOS>MOLECULE
PISM01189
   65    67     1     1     0
SMALL
GAST_HUCK


@<TRIPOS>ATOM
      1 C1         22.9352   24.2971  -38.6288 C.3       1 <1>        -0.0629 
      2 C2         21.4435   24.2160  -38.2045 C.3       1 <1>        -0.0350 
      3 C3         20.6955   25.5854  -38.2308 C.3       1 <1>         0.0570 
      4 C4         19.2179   25.3479  -37.9401 C.2       1 <1>         0.2369 
      5 O5         18.8971   24.3769  -37.2760 O.2       1 <1>        -0.3701 
      6 O6         18.2114   26.1520  -38.3378 O.3       1 <1>        -0.2712 
      7 C7         18.4549   27.1670  -39.3318 C.3       1 <1>         0.0991 
      8 C8         18.4749   26.4544  -40.7152 C.3       1 <1>        -0.0111 
      9 C9         18.7898   27.4694  -41.8416 C.3       1 <1>        -0.0250 
     10 C10        18.0866   28.7869  -41.6298 C.2       1 <1>        -0.0920 
     11 C11        17.4232   29.1215  -40.5138 C.2       1 <1>        -0.0677 
     12 C12        17.2603   28.1738  -39.3415 C.3       1 <1>         0.0160 
     13 C13        18.4539   26.8777  -43.2365 C.3       1 <1>        -0.0555 
     14 C14        16.9509   28.9587  -38.0105 C.3       1 <1>        -0.0163 
     15 C15        17.4700   30.4308  -38.0307 C.3       1 <1>        -0.0129 
     16 C16        16.8946   31.1182  -39.2451 C.2       1 <1>        -0.0815 
     17 C17        16.8692   30.4836  -40.4199 C.2       1 <1>        -0.0819 
     18 C18        19.0145   30.5736  -38.0313 C.3       1 <1>        -0.0519 
     19 C19        17.2941   28.1608  -36.7137 C.3       1 <1>        -0.0434 
     20 C20        16.8991   28.8458  -35.3743 C.3       1 <1>        -0.0215 
     21 C21        17.1956   27.9556  -34.1329 C.3       1 <1>         0.0901 
     22 C22        16.3921   26.6210  -34.1340 C.3       1 <1>         0.0062 
     23 C23        16.2293   26.0465  -32.6997 C.3       1 <1>         0.0758 
     24 C24        17.3286   26.6290  -31.7816 C.3       1 <1>         0.0748 
     25 C25        17.1211   28.1218  -31.7907 C.2       1 <1>         0.2365 
     26 O26        16.9309   28.7525  -32.9605 O.3       1 <1>        -0.2734 
     27 O27        17.0970   28.7536  -30.7483 O.2       1 <1>        -0.3703 
     28 O28        16.2989   24.6099  -32.7548 O.3       1 <1>        -0.3892 
     29 C29        21.2641   26.5645  -37.1651 C.3       1 <1>        -0.0440 
     30 H1         23.3550   23.2811  -38.7032 H         1 <1>         0.0231 
     31 H2         23.5344   24.8524  -37.8924 H         1 <1>         0.0231 
     32 H3         23.0344   24.7848  -39.6109 H         1 <1>         0.0231 
     33 H4         21.3850   23.7691  -37.1979 H         1 <1>         0.0291 
     34 H5         20.9319   23.5352  -38.9067 H         1 <1>         0.0291 
     35 H6         20.8738   26.0135  -39.2262 H         1 <1>         0.0551 
     36 H7         19.3625   27.7570  -39.1476 H         1 <1>         0.0672 
     37 H8         17.4867   26.0017  -40.8941 H         1 <1>         0.0319 
     38 H9         19.2007   25.6290  -40.7559 H         1 <1>         0.0319 
     39 H10        19.8704   27.6928  -41.8074 H         1 <1>         0.0426 
     40 H11        18.1608   29.5136  -42.4407 H         1 <1>         0.0428 
     41 H12        16.3638   27.5666  -39.5552 H         1 <1>         0.0452 
     42 H13        18.7624   27.5713  -44.0344 H         1 <1>         0.0253 
     43 H14        17.3704   26.7035  -43.3250 H         1 <1>         0.0253 
     44 H15        18.9801   25.9218  -43.3842 H         1 <1>         0.0253 
     45 H16        15.8520   29.0893  -37.9747 H         1 <1>         0.0351 
     46 H17        17.0711   30.9732  -37.1576 H         1 <1>         0.0478 
     47 H18        16.5076   32.1364  -39.1718 H         1 <1>         0.0629 
     48 H19        16.4638   30.9777  -41.3042 H         1 <1>         0.0405 
     49 H20        19.4572   30.0828  -37.1525 H         1 <1>         0.0259 
     50 H21        19.2850   31.6407  -38.0003 H         1 <1>         0.0259 
     51 H22        19.4535   30.1420  -38.9414 H         1 <1>         0.0259 
     52 H23        18.3702   27.9483  -36.6712 H         1 <1>         0.0272 
     53 H24        16.7438   27.2094  -36.7705 H         1 <1>         0.0272 
     54 H25        15.8306   29.1141  -35.3837 H         1 <1>         0.0294 
     55 H26        17.4844   29.7685  -35.2369 H         1 <1>         0.0294 
     56 H27        18.2785   27.7344  -34.1397 H         1 <1>         0.0650 
     57 H28        16.9330   25.8857  -34.7528 H         1 <1>         0.0320 
     58 H29        15.3929   26.7633  -34.5769 H         1 <1>         0.0320 
     59 H30        15.2454   26.3523  -32.2947 H         1 <1>         0.0620 
     60 H31        18.3348   26.3579  -32.1335 H         1 <1>         0.0544 
     61 H32        17.2057   26.2456  -30.7566 H         1 <1>         0.0544 
     62 H33        16.1748   24.1883  -31.9096 H         1 <1>         0.2100 
     63 H34        21.1858   26.1172  -36.1622 H         1 <1>         0.0258 
     64 H35        20.7100   27.5129  -37.1606 H         1 <1>         0.0258 
     65 H36        22.3184   26.8058  -37.3625 H         1 <1>         0.0258 
@<TRIPOS>BOND
     1    2    1 1    
     2    2    3 1    
     3    3    4 1    
     4    4    5 2    
     5    4    6 1    
     6    6    7 1    
     7    7    8 1    
     8    8    9 1    
     9    9   10 1    
    10   10   11 2    
    11   11   12 1    
    12    7   12 1    
    13    9   13 1    
    14   12   14 1    
    15   14   15 1    
    16   15   16 1    
    17   16   17 2    
    18   11   17 1    
    19   15   18 1    
    20   14   19 1    
    21   19   20 1    
    22   20   21 1    
    23   21   22 1    
    24   22   23 1    
    25   23   24 1    
    26   24   25 1    
    27   25   26 1    
    28   21   26 1    
    29   25   27 2    
    30   23   28 1    
    31    3   29 1    
    32    1   30 1    
    33    1   31 1    
    34    1   32 1    
    35    2   33 1    
    36    2   34 1    
    37    3   35 1    
    38    7   36 1    
    39    8   37 1    
    40    8   38 1    
    41    9   39 1    
    42   10   40 1    
    43   12   41 1    
    44   13   42 1    
    45   13   43 1    
    46   13   44 1    
    47   14   45 1    
    48   15   46 1    
    49   16   47 1    
    50   17   48 1    
    51   18   49 1    
    52   18   50 1    
    53   18   51 1    
    54   19   52 1    
    55   19   53 1    
    56   20   54 1    
    57   20   55 1    
    58   21   56 1    
    59   22   57 1    
    60   22   58 1    
    61   23   59 1    
    62   24   60 1    
    63   24   61 1    
    64   28   62 1    
    65   29   63 1    
    66   29   64 1    
    67   29   65 1    
@<TRIPOS>SUBSTRUCTURE
     1 ****        2 TEMP              0 ****  ****    0 ROOT 
@<TRIPOS>NORMAL
@<TRIPOS>FF_PBC
FORCE_FIELD_SETUP_FEATURE Force Field Setup information
v1.0  0 0.000000 0.000000 0.000000 0.000000 0.000000 0.000000 NONE 0 0 0 0 1 0 0 0 0 0 0 0 0
