#	Name:			PISM00922
#	Creating user name:	baoopengkun
#	Creation time:		Fri Dec 14 10:31:16 2018

#	Modifying user name:	baoopengkun
#	Modification time:	Fri Dec 14 11:05:54 2018

@<TRIPOS>MOLECULE
PISM00922
   46    48     1     1     0
SMALL
GAST_HUCK


@<TRIPOS>ATOM
      1 C1         22.6676    8.7582  -12.4730 C.ar      1 <1>        -0.0145 
      2 C2         22.1492    7.5381  -12.0161 C.ar      1 <1>         0.0720 
      3 C3         22.7373    6.3257  -12.4185 C.ar      1 <1>        -0.0299 
      4 C4         23.8127    6.2945  -13.3161 C.ar      1 <1>        -0.0474 
      5 C5         24.3034    7.5175  -13.7698 C.ar      1 <1>         0.0608 
      6 C6         23.7462    8.7177  -13.3549 C.ar      1 <1>         0.0637 
      7 C7         24.5419    9.7961  -14.0469 C.2       1 <1>         0.2418 
      8 N8         25.4937    9.2325  -14.8165 N.am      1 <1>        -0.1418 
      9 C9         25.4236    7.8922  -14.7082 C.2       1 <1>         0.2355 
     10 O10        24.3293   10.9890  -13.9134 O.2       1 <1>        -0.3668 
     11 O11        26.1442    7.0880  -15.2736 O.2       1 <1>        -0.3726 
     12 C12        26.4740    9.9590  -15.6036 C.3       1 <1>         0.2214 
     13 O13        27.4282   10.5592  -14.7052 O.3       1 <1>        -0.2348 
     14 C14        27.2852   11.8690  -14.8680 C.2       1 <1>         0.2491 
     15 C15        26.2935   12.2738  -15.8582 C.2       1 <1>         0.0288 
     16 C16        25.8153   11.1175  -16.3137 C.2       1 <1>        -0.0059 
     17 C17        25.9158   13.6691  -16.2733 C.3       1 <1>        -0.0323 
     18 O18        27.9484   12.6732  -14.2359 O.2       1 <1>        -0.3691 
     19 N19        21.0837    7.5506  -11.1774 N.pl3     1 <1>        -0.2358 
     20 C20        20.0557    6.7628  -11.3568 C.2       1 <1>         0.2019 
     21 O21        19.9814    5.9802  -12.2894 O.2       1 <1>        -0.3789 
     22 C22        18.9077    6.8328  -10.3754 C.3       1 <1>         0.0429 
     23 C23        17.7618    5.8394  -10.7122 C.3       1 <1>        -0.0354 
     24 C24        16.6048    5.9335   -9.6801 C.3       1 <1>        -0.0512 
     25 C25        15.4631    4.9366  -10.0188 C.3       1 <1>        -0.0558 
     26 C26        14.3120    5.0244   -8.9830 C.3       1 <1>        -0.0653 
     27 H1         22.2471    9.7079  -12.1610 H         1 <1>         0.0597 
     28 H2         22.3631    5.3862  -12.0249 H         1 <1>         0.0574 
     29 H3         24.2536    5.3600  -13.6479 H         1 <1>         0.0651 
     30 H4         26.9959    9.3061  -16.3232 H         1 <1>         0.1152 
     31 H5         25.0496   11.0161  -17.0816 H         1 <1>         0.0702 
     32 H6         25.6723   13.6989  -17.3459 H         1 <1>         0.0347 
     33 H7         26.7503   14.3591  -16.0776 H         1 <1>         0.0347 
     34 H8         25.0387   13.9936  -15.6941 H         1 <1>         0.0347 
     35 H9         21.0809    8.2191  -10.3925 H         1 <1>         0.2126 
     36 H10        18.5106    7.8599  -10.3793 H         1 <1>         0.0511 
     37 H11        19.2991    6.6094   -9.3706 H         1 <1>         0.0511 
     38 H12        18.1644    4.8129  -10.7180 H         1 <1>         0.0290 
     39 H13        17.3732    6.0640  -11.7195 H         1 <1>         0.0290 
     40 H14        16.2013    6.9595   -9.6751 H         1 <1>         0.0267 
     41 H15        16.9944    5.7103   -8.6732 H         1 <1>         0.0267 
     42 H16        15.8608    3.9080  -10.0278 H         1 <1>         0.0263 
     43 H17        15.0630    5.1600  -11.0220 H         1 <1>         0.0263 
     44 H18        13.8845    6.0391   -8.9682 H         1 <1>         0.0230 
     45 H19        14.6829    4.7822   -7.9748 H         1 <1>         0.0230 
     46 H20        13.5132    4.3117   -9.2425 H         1 <1>         0.0230 
@<TRIPOS>BOND
     1    2    1 ar   
     2    2    3 ar   
     3    3    4 ar   
     4    4    5 ar   
     5    6    5 ar   
     6    1    6 ar   
     7    6    7 1    
     8    7    8 am   
     9    9    8 am   
    10    5    9 1    
    11    7   10 2    
    12    9   11 2    
    13    8   12 1    
    14   12   13 1    
    15   13   14 1    
    16   15   14 1    
    17   16   15 2    
    18   12   16 1    
    19   15   17 1    
    20   14   18 2    
    21    2   19 1    
    22   19   20 1    
    23   20   21 2    
    24   20   22 1    
    25   22   23 1    
    26   23   24 1    
    27   24   25 1    
    28   25   26 1    
    29    1   27 1    
    30    3   28 1    
    31    4   29 1    
    32   12   30 1    
    33   16   31 1    
    34   17   32 1    
    35   17   33 1    
    36   17   34 1    
    37   19   35 1    
    38   22   36 1    
    39   22   37 1    
    40   23   38 1    
    41   23   39 1    
    42   24   40 1    
    43   24   41 1    
    44   25   42 1    
    45   25   43 1    
    46   26   44 1    
    47   26   45 1    
    48   26   46 1    
@<TRIPOS>SUBSTRUCTURE
     1 ****        2 TEMP              0 ****  ****    0 ROOT 
@<TRIPOS>NORMAL
@<TRIPOS>FF_PBC
FORCE_FIELD_SETUP_FEATURE Force Field Setup information
v1.0  0 0.000000 0.000000 0.000000 0.000000 0.000000 0.000000 NONE 0 0 0 0 1 0 0 0 0 0 0 0 0
