#	Name:			PISM00633.3
#	Creating user name:	baoopengkun
#	Creation time:		Sat Dec 08 23:34:45 2018

#	Modifying user name:	baoopengkun
#	Modification time:	Sat Dec 08 23:35:15 2018

@<TRIPOS>MOLECULE
PISM00633.3
   52    55     1     2     0
SMALL
GAST_HUCK


@<TRIPOS>ATOM
      1 C1         -4.9637   17.0526   -0.9031 C.ar      1 PHENYL     -0.0348 
      2 C2         -6.2547   16.6735   -0.5258 C.ar      1 PHENYL     -0.0183 
      3 C3         -6.5981   15.3203   -0.4835 C.ar      1 PHENYL      0.0716 
      4 C4         -5.6431   14.3518   -0.8020 C.ar      1 PHENYL     -0.0038 
      5 C5         -4.3465   14.7294   -1.1631 C.ar      1 PHENYL      0.0705 
      6 C6         -4.0102   16.0864   -1.2453 C.ar      1 PHENYL      0.0199 
      7 C7         -2.6161   16.5420   -1.6929 C.3       1 PHENYL      0.1912 
      8 C8         -1.6830   16.5699   -0.4540 C.3       1 PHENYL      0.1066 
      9 N9         -2.3606   17.2278    0.6541 N.pl3     1 PHENYL     -0.1816 
     10 N10        -2.3772   18.5647    0.9153 N.2       1 PHENYL     -0.1908 
     11 C11        -3.0424   18.8636    1.9685 C.2       1 PHENYL      0.0618 
     12 N12        -3.4684   17.5600    2.3974 N.2       1 PHENYL     -0.2870 
     13 C13        -3.0436   16.6787    1.6120 C.2       1 PHENYL      0.1270 
     14 O14        -2.6959   17.8028   -2.3742 O.3       1 PHENYL     -0.3824 
     15 C15        -1.5382   17.9365   -3.2089 C.3       1 PHENYL      0.0669 
     16 C16        -1.0647   16.4738   -3.4077 C.3       1 PHENYL      0.0997 
     17 O17        -2.1100   15.7359   -2.7631 O.3       1 PHENYL     -0.3768 
     18 Cl18       -8.2205   14.8394   -0.0305 Cl        1 PHENYL     -0.0423 
     19 H1         -4.7016   18.1063   -0.9252 H         1 PHENYL      0.0847 
     20 H2         -6.9904   17.4278   -0.2656 H         1 PHENYL      0.0703 
     21 H3         -5.9096   13.3009   -0.7666 H         1 PHENYL      0.0708 
     22 Cl22       -3.1646   13.4777   -1.4953 Cl        1 PHENYL     -0.0423 
     23 H5         -0.7515   17.1152   -0.6562 H         1 PHENYL      0.0592 
     24 H6         -1.4247   15.5358   -0.1807 H         1 PHENYL      0.0592 
     25 H7         -3.2305   19.8390    2.4147 H         1 PHENYL      0.0863 
     26 H8         -3.2339   15.6129    1.7339 H         1 PHENYL      0.1361 
     27 H11        -0.7721   18.5509   -2.7096 H         1 PHENYL      0.0575 
     28 C28        -0.9258   16.0471   -4.8888 C.3       1 PHENYL      0.0952 
     29 H9         -1.8422   18.4320   -4.1433 H         1 PHENYL      0.0575 
     30 H10        -0.1086   16.2935   -2.8881 H         1 PHENYL      0.0635 
     31 C          -0.0668   14.0633   -6.1399 C.ar      1 PHENYL      0.1201 
     32 C           0.5869   12.8256   -6.0800 C.ar      1 PHENYL      0.1229 
     33 C           0.8581   12.1250   -7.2636 C.ar      1 PHENYL     -0.0412 
     34 O34        -0.3435   14.7326   -4.9372 O.3       1 PHENYL     -0.3192 
     35 H15        -0.2687   16.7621   -5.4089 H         1 PHENYL      0.0635 
     36 H16        -1.9294   16.0537   -5.3425 H         1 PHENYL      0.0635 
     37 C           0.4936   12.6632   -8.5006 C.ar      1 PHENYL     -0.0819 
     38 C          -0.1458   13.9028   -8.5607 C.ar      1 PHENYL     -0.0819 
     39 C          -0.4268   14.6010   -7.3834 C.ar      1 PHENYL     -0.0414 
     40 O40         0.9553   12.3227   -4.8210 O.3       1 PHENYL     -0.3083 
     41 C41         1.6300   11.0660   -4.6499 C.3       1 PHENYL      0.0963 
     42 C42         1.8983   10.8992   -3.1756 C.2       1 PHENYL     -0.0596 
     43 C43         1.5304    9.8198   -2.4736 C.2       1 PHENYL     -0.1150 
     44 H4          1.3510   11.1609   -7.2532 H         1 PHENYL      0.0509 
     45 H12         0.7072   12.1187   -9.4157 H         1 PHENYL      0.0495 
     46 H13        -0.4242   14.3226   -9.5229 H         1 PHENYL      0.0495 
     47 H14        -0.9256   15.5587   -7.4647 H         1 PHENYL      0.0509 
     48 H17         2.5994   11.0744   -5.1725 H         1 PHENYL      0.0791 
     49 H18         1.0068   10.2436   -5.0354 H         1 PHENYL      0.0791 
     50 H19         2.4216   11.7114   -2.6680 H         1 PHENYL      0.0698 
     51 H20         1.7503    9.7530   -1.4078 H         1 PHENYL      0.0291 
     52 H21         1.0067    8.9840   -2.9368 H         1 PHENYL      0.0291 
@<TRIPOS>BOND
     1    1    2 ar   
     2    2    3 ar   
     3    4    3 ar   
     4    5    4 ar   
     5    6    5 ar   
     6    6    1 ar   
     7    7    6 1    
     8    7    8 1    
     9    8    9 1    
    10    9   10 1    
    11   10   11 2    
    12   12   11 1    
    13   13   12 2    
    14    9   13 1    
    15    7   14 1    
    16   15   14 1    
    17   16   15 1    
    18   16   17 1    
    19   17    7 1    
    20    3   18 1    
    21    1   19 1    
    22    2   20 1    
    23    4   21 1    
    24    5   22 1    
    25    8   23 1    
    26    8   24 1    
    27   11   25 1    
    28   13   26 1    
    29   15   27 1    
    30   28   16 1    
    31   15   29 1    
    32   16   30 1    
    33   31   32 ar   
    34   31   39 ar   
    35   39   38 ar   
    36   34   28 1    
    37   28   35 1    
    38   28   36 1    
    39   38   37 ar   
    40   33   37 ar   
    41   32   33 ar   
    42   31   34 1    
    43   32   40 1    
    44   40   41 1    
    45   41   42 1    
    46   42   43 2    
    47   33   44 1    
    48   37   45 1    
    49   38   46 1    
    50   39   47 1    
    51   41   48 1    
    52   41   49 1    
    53   42   50 1    
    54   43   51 1    
    55   43   52 1    
@<TRIPOS>SUBSTRUCTURE
     1 PHENYL     31 PERM              0 ****  ****    0 ROOT 
@<TRIPOS>NORMAL
@<TRIPOS>FF_PBC
FORCE_FIELD_SETUP_FEATURE Force Field Setup information
v1.0  0 0.000000 0.000000 0.000000 0.000000 0.000000 0.000000 NONE 0 0 0 0 1 0 0 0 0 0 0 0 0
@<TRIPOS>RENDERING_ATTRS
ANTIALIASED_LINES 
*
