#	Name:			PISM00379
#	Creating user name:	baoopengkun
#	Creation time:		Sun Mar 31 21:57:26 2019

#	Modifying user name:	baoopengkun
#	Modification time:	Sun Mar 31 22:03:44 2019

@<TRIPOS>MOLECULE
PISM00379
   59    60     1     1     0
SMALL
GAST_HUCK


@<TRIPOS>ATOM
      1 C1         14.1243   -0.3006   -3.0532 C.3       1 <1>         0.3720 
      2 C2         12.7592   -0.2237   -2.3596 C.ar      1 <1>         0.0436 
      3 C3         12.0018    0.9537   -2.3646 C.ar      1 <1>        -0.0322 
      4 C4         10.7443    0.9852   -1.7534 C.ar      1 <1>        -0.0176 
      5 C5         10.2394   -0.1603   -1.1323 C.ar      1 <1>         0.0538 
      6 C6         11.0056   -1.3285   -1.0972 C.ar      1 <1>        -0.0176 
      7 C7         12.2622   -1.3581   -1.7086 C.ar      1 <1>        -0.0322 
      8 C8          8.9296   -0.1505   -0.5327 C.1       1 <1>        -0.0374 
      9 C9          7.8316   -0.1640   -0.0405 C.1       1 <1>        -0.0501 
     10 C10         6.4970   -0.2103    0.5455 C.3       1 <1>         0.1205 
     11 O11         6.5481   -0.8250    1.8472 O.3       1 <1>        -0.3369 
     12 C12         7.1075   -0.0084    2.8993 C.3       1 <1>         0.1163 
     13 C13         6.1556    1.0897    3.4464 C.3       1 <1>        -0.0149 
     14 C14         4.9849    0.4986    4.2836 C.3       1 <1>        -0.0599 
     15 C15         5.6032   -0.2340    5.5266 C.3       1 <1>         0.0164 
     16 C16         6.8361   -1.0516    5.1840 C.2       1 <1>        -0.0800 
     17 C17         7.4762   -0.9574    4.0091 C.2       1 <1>        -0.0120 
     18 C18         7.3596   -1.9783    6.2650 C.3       1 <1>        -0.0473 
     19 C19         4.1302   -0.4737    3.4112 C.3       1 <1>        -0.0740 
     20 C20         4.0456    1.6732    4.7040 C.3       1 <1>        -0.0740 
     21 C21         4.5478   -1.0648    6.2353 C.2       1 <1>        -0.1031 
     22 C22         4.2509   -2.3330    5.9188 C.2       1 <1>        -0.0274 
     23 C23         3.2258   -3.1433    6.6163 C.2       1 <1>         0.0135 
     24 C24         3.0047   -2.8982    8.0934 C.3       1 <1>        -0.0153 
     25 C25         2.5061   -4.0883    5.9881 C.2       1 <1>         0.0548 
     26 C26         2.5463   -4.4712    4.5622 C.2       1 <1>         0.2661 
     27 O27         3.1225   -3.7804    3.7379 O.2       1 <1>        -0.3516 
     28 O28         1.9311   -5.5877    4.1673 O.3       1 <1>        -0.2932 
     29 O29         6.1723    0.6980    6.4654 O.3       1 <1>        -0.4739 
     30 F30        14.1878   -1.4351   -3.8015 F         1 <1>        -0.2252 
     31 F31        15.0999   -0.3378   -2.1070 F         1 <1>        -0.2252 
     32 F32        14.3326    0.7706   -3.8659 F         1 <1>        -0.2252 
     33 H1         12.3850    1.8498   -2.8432 H         1 <1>         0.0844 
     34 H2         10.1583    1.8991   -1.7626 H         1 <1>         0.0708 
     35 H3         10.6245   -2.2136   -0.5971 H         1 <1>         0.0708 
     36 H4         12.8554   -2.2672   -1.6784 H         1 <1>         0.0844 
     37 H5          5.9004   -0.8765   -0.0946 H         1 <1>         0.0719 
     38 H6          6.0311    0.7850    0.5246 H         1 <1>         0.0719 
     39 H7          8.0419    0.4691    2.5549 H         1 <1>         0.0935 
     40 H8          5.7684    1.7146    2.6302 H         1 <1>         0.0325 
     41 H9          6.7440    1.7486    4.1066 H         1 <1>         0.0325 
     42 H10         8.3343   -1.6006    3.8160 H         1 <1>         0.1201 
     43 H11         6.8880   -2.9688    6.2133 H         1 <1>         0.0360 
     44 H12         7.1688   -1.5501    7.2606 H         1 <1>         0.0360 
     45 H13         8.4471   -2.1183    6.1740 H         1 <1>         0.0360 
     46 H14         4.6663   -1.4038    3.1853 H         1 <1>         0.0219 
     47 H15         3.8600    0.0034    2.4568 H         1 <1>         0.0219 
     48 H16         3.1951   -0.7448    3.9248 H         1 <1>         0.0219 
     49 H17         4.6012    2.5002    5.1707 H         1 <1>         0.0219 
     50 H18         3.2793    1.3238    5.4121 H         1 <1>         0.0219 
     51 H19         3.5301    2.0883    3.8242 H         1 <1>         0.0219 
     52 H20         3.9930   -0.5823    7.0394 H         1 <1>         0.0477 
     53 H21         4.7935   -2.8014    5.1009 H         1 <1>         0.1020 
     54 H22         2.2285   -2.1285    8.2212 H         1 <1>         0.0428 
     55 H23         3.9341   -2.5497    8.5698 H         1 <1>         0.0428 
     56 H24         2.6876   -3.8096    8.6235 H         1 <1>         0.0428 
     57 H25         1.7844   -4.6689    6.5610 H         1 <1>         0.0888 
     58 H26         2.0230   -5.7310    3.2308 H         1 <1>         0.2516 
     59 H27         5.5429    1.2592    6.9025 H         1 <1>         0.1784 
@<TRIPOS>BOND
     1    2    1 1    
     2    2    3 ar   
     3    3    4 ar   
     4    4    5 ar   
     5    5    6 ar   
     6    6    7 ar   
     7    2    7 ar   
     8    5    8 1    
     9    8    9 3    
    10    9   10 1    
    11   10   11 1    
    12   11   12 1    
    13   12   13 1    
    14   13   14 1    
    15   14   15 1    
    16   15   16 1    
    17   16   17 2    
    18   12   17 1    
    19   16   18 1    
    20   14   19 1    
    21   14   20 1    
    22   15   21 1    
    23   21   22 2    
    24   22   23 1    
    25   23   24 1    
    26   23   25 2    
    27   25   26 1    
    28   26   27 2    
    29   26   28 1    
    30   15   29 1    
    31    1   30 1    
    32    1   31 1    
    33    1   32 1    
    34    3   33 1    
    35    4   34 1    
    36    6   35 1    
    37    7   36 1    
    38   10   37 1    
    39   10   38 1    
    40   12   39 1    
    41   13   40 1    
    42   13   41 1    
    43   17   42 1    
    44   18   43 1    
    45   18   44 1    
    46   18   45 1    
    47   19   46 1    
    48   19   47 1    
    49   19   48 1    
    50   20   49 1    
    51   20   50 1    
    52   20   51 1    
    53   21   52 1    
    54   22   53 1    
    55   24   54 1    
    56   24   55 1    
    57   24   56 1    
    58   25   57 1    
    59   28   58 1    
    60   29   59 1    
@<TRIPOS>SUBSTRUCTURE
     1 ****        2 TEMP              0 ****  ****    0 ROOT 
@<TRIPOS>NORMAL
@<TRIPOS>FF_PBC
FORCE_FIELD_SETUP_FEATURE Force Field Setup information
v1.0  0 0.000000 0.000000 0.000000 0.000000 0.000000 0.000000 NONE 0 0 0 0 1 0 0 0 0 0 0 0 0
