#	Name:			PISM00944
#	Creating user name:	baoopengkun
#	Creation time:		Wed Dec 12 23:27:48 2018

#	Modifying user name:	baoopengkun
#	Modification time:	Wed Dec 12 23:29:59 2018

@<TRIPOS>MOLECULE
PISM00944
   27    28     1     1     0
SMALL
GAST_HUCK


@<TRIPOS>ATOM
      1 O1          8.4351   -8.9319    8.8928 O.2       1 <1>        -0.3645 
      2 C2          7.3490   -8.7458    8.3664 C.2       1 <1>         0.2531 
      3 O3          7.1091   -7.6009    7.7205 O.3       1 <1>        -0.2955 
      4 C4          6.2723   -9.8079    8.4498 C.ar      1 <1>         0.0831 
      5 C5          6.4985  -10.9629    9.2081 C.ar      1 <1>        -0.0508 
      6 C6          5.5100  -11.9441    9.3179 C.ar      1 <1>        -0.0680 
      7 C7          4.2799  -11.7626    8.6823 C.ar      1 <1>        -0.0676 
      8 C8          4.0502  -10.6085    7.9286 C.ar      1 <1>        -0.0333 
      9 C9          5.0547   -9.6443    7.7734 C.ar      1 <1>         0.0806 
     10 N10         4.8466   -8.5611    6.9820 N.pl3     1 <1>        -0.2706 
     11 C11         4.1004   -8.6210    5.8508 C.ar      1 <1>         0.0597 
     12 C12         4.1228   -9.7567    5.0315 C.ar      1 <1>        -0.0394 
     13 C13         3.3207   -9.8205    3.8883 C.ar      1 <1>        -0.0721 
     14 C14         2.5148   -8.7341    3.5376 C.ar      1 <1>        -0.0739 
     15 C15         2.5130   -7.5848    4.3326 C.ar      1 <1>        -0.0721 
     16 C16         3.3026   -7.5310    5.4850 C.ar      1 <1>        -0.0394 
     17 H1          7.8685   -7.0268    7.7393 H         1 <1>         0.2519 
     18 H2          7.4463  -11.1046    9.7180 H         1 <1>         0.0640 
     19 H3          5.6963  -12.8438    9.8970 H         1 <1>         0.0527 
     20 H4          3.5036  -12.5163    8.7750 H         1 <1>         0.0623 
     21 H5          3.0781  -10.4657    7.4678 H         1 <1>         0.0543 
     22 H6          5.2882   -7.6618    7.2371 H         1 <1>         0.2106 
     23 H7          4.7686  -10.5944    5.2738 H         1 <1>         0.0531 
     24 H8          3.3251  -10.7139    3.2711 H         1 <1>         0.0586 
     25 H9          1.8925   -8.7824    2.6491 H         1 <1>         0.0515 
     26 H10         1.8972   -6.7345    4.0554 H         1 <1>         0.0586 
     27 H11         3.2909   -6.6371    6.1002 H         1 <1>         0.0531 
@<TRIPOS>BOND
     1    2    1 2    
     2    2    3 1    
     3    2    4 1    
     4    4    5 ar   
     5    5    6 ar   
     6    6    7 ar   
     7    7    8 ar   
     8    8    9 ar   
     9    4    9 ar   
    10    9   10 1    
    11   10   11 1    
    12   11   12 ar   
    13   12   13 ar   
    14   13   14 ar   
    15   14   15 ar   
    16   15   16 ar   
    17   11   16 ar   
    18    3   17 1    
    19    5   18 1    
    20    6   19 1    
    21    7   20 1    
    22    8   21 1    
    23   10   22 1    
    24   12   23 1    
    25   13   24 1    
    26   14   25 1    
    27   15   26 1    
    28   16   27 1    
@<TRIPOS>SUBSTRUCTURE
     1 ****        2 TEMP              0 ****  ****    0 ROOT 
@<TRIPOS>NORMAL
@<TRIPOS>FF_PBC
FORCE_FIELD_SETUP_FEATURE Force Field Setup information
v1.0  0 0.000000 0.000000 0.000000 0.000000 0.000000 0.000000 NONE 0 0 0 0 1 0 0 0 0 0 0 0 0
