#	Name:			PISM00481
#	Creating user name:	baoopengkun
#	Creation time:		Wed Feb 27 22:08:35 2019

#	Modifying user name:	baoopengkun
#	Modification time:	Wed Feb 27 22:11:57 2019

@<TRIPOS>MOLECULE
PISM00481
   13    13     1     1     0
SMALL
GAST_HUCK


@<TRIPOS>ATOM
      1 C1         23.8618    4.1994  -11.1112 C.2       1 <1>        -0.0506 
      2 C2         25.1965    4.6044  -10.5141 C.3       1 <1>         0.0027 
      3 C3         24.7274    3.2216  -10.9260 C.2       1 <1>        -0.0506 
      4 C4         26.2074    5.3140  -11.4425 C.3       1 <1>        -0.0904 
      5 H1         22.8759    4.5097  -11.4531 H         1 <1>         0.1201 
      6 C6         25.2367    4.9158   -9.0013 C.3       1 <1>        -0.0904 
      7 H3         24.9557    2.1602  -11.0078 H         1 <1>         0.1201 
      8 H4         27.2305    5.0641  -11.1244 H         1 <1>         0.0065 
      9 H5         26.0633    6.4024  -11.3719 H         1 <1>         0.0065 
     10 H6         26.0732    5.0034  -12.4902 H         1 <1>         0.0065 
     11 H2         26.2235    4.6414   -8.5999 H         1 <1>         0.0065 
     12 H7         24.4613    4.3541   -8.4579 H         1 <1>         0.0065 
     13 H8         25.0712    5.9925   -8.8472 H         1 <1>         0.0065 
@<TRIPOS>BOND
     1    2    1 1    
     2    2    3 1    
     3    1    3 2    
     4    2    4 1    
     5    1    5 1    
     6    2    6 1    
     7    3    7 1    
     8    4    8 1    
     9    4    9 1    
    10    4   10 1    
    11    6   11 1    
    12    6   12 1    
    13    6   13 1    
@<TRIPOS>SUBSTRUCTURE
     1 ****        2 TEMP              0 ****  ****    0 ROOT 
@<TRIPOS>NORMAL
@<TRIPOS>FF_PBC
FORCE_FIELD_SETUP_FEATURE Force Field Setup information
v1.0  0 0.000000 0.000000 0.000000 0.000000 0.000000 0.000000 NONE 0 0 0 0 1 0 0 0 0 0 0 0 0
