#	Name:			PISM00029
#	Creating user name:	baoopengkun
#	Creation time:		Sat Nov 17 17:17:12 2018

#	Modifying user name:	baoopengkun
#	Modification time:	Sat Nov 17 17:24:47 2018

@<TRIPOS>MOLECULE
PISM00029
   34    36     1     2     0
SMALL
GAST_HUCK


@<TRIPOS>ATOM
      1 F1         -5.5173   -1.1997    0.9672 F         1 <1>        -0.1893 
      2 C2         -5.3024   -1.8026    2.1338 C.ar      1 <1>         0.1248 
      3 C3         -5.8954   -1.3074    3.2973 C.ar      1 <1>        -0.0348 
      4 C4         -5.6676   -1.9415    4.5222 C.ar      1 <1>        -0.0594 
      5 C5         -4.8495   -3.0750    4.5916 C.ar      1 <1>        -0.0164 
      6 C6         -4.2578   -3.5678    3.4218 C.ar      1 <1>        -0.0594 
      7 C7         -4.4832   -2.9321    2.1969 C.ar      1 <1>        -0.0348 
      8 C8         -4.6210   -3.7489    5.9503 C.3       1 <1>         0.1040 
      9 O9         -4.1222   -2.7498    6.8562 O.3       1 <1>        -0.3041 
     10 C10        -3.8057   -3.0365    8.1915 C.ar      1 <1>         0.0940 
     11 C11        -3.2610   -2.0231    8.9829 C.ar      1 <1>        -0.0345 
     12 C12        -2.9242   -2.2608   10.3181 C.ar      1 <1>        -0.0591 
     13 C13        -3.1292   -3.5250   10.8839 C.ar      1 <1>         0.0230 
     14 C14        -3.6785   -4.5439   10.0950 C.ar      1 <1>         0.1349 
     15 C15        -4.0146   -4.2988    8.7606 C.ar      1 <1>         0.0088 
     16 O16        -3.9036   -5.8216   10.6149 O.3       1 <1>        -0.2167 
     17 C17        -3.5939   -6.0920   11.8850 C.2       1 <1>         0.2447 
     18 C18        -3.0129   -5.0664   12.7660 C.2       1 <1>         0.0067 
     19 C19        -2.7750   -3.8264   12.3253 C.2       1 <1>        -0.0313 
     20 C20        -2.1777   -2.7694   13.2268 C.3       1 <1>        -0.0253 
     21 O21        -3.7990   -7.2136   12.3174 O.2       1 <1>        -0.3879 
     22 H1         -6.5315   -0.4302    3.2440 H         1 <1>         0.0587 
     23 H2         -6.1285   -1.5502    5.4240 H         1 <1>         0.0548 
     24 H3         -3.6201   -4.4454    3.4542 H         1 <1>         0.0548 
     25 H4         -4.0242   -3.3116    1.2900 H         1 <1>         0.0587 
     26 H5         -3.8957   -4.5727    5.8608 H         1 <1>         0.0774 
     27 H6         -5.5901   -4.1433    6.2938 H         1 <1>         0.0774 
     28 H7         -3.0998   -1.0413    8.5491 H         1 <1>         0.0493 
     29 H8         -2.5037   -1.4485   10.8998 H         1 <1>         0.0617 
     30 H9         -4.4388   -5.1152    8.1907 H         1 <1>         0.0489 
     31 H10        -2.7860   -5.3621   13.7901 H         1 <1>         0.0410 
     32 H11        -1.9770   -3.1451   14.2417 H         1 <1>         0.0432 
     33 H12        -2.8732   -1.9211   13.3123 H         1 <1>         0.0432 
     34 H13        -1.2253   -2.4180   12.8024 H         1 <1>         0.0432 
@<TRIPOS>BOND
     1    2    1 1    
     2    2    3 ar   
     3    3    4 ar   
     4    4    5 ar   
     5    5    6 ar   
     6    6    7 ar   
     7    2    7 ar   
     8    5    8 1    
     9    8    9 1    
    10    9   10 1    
    11   10   11 ar   
    12   11   12 ar   
    13   12   13 ar   
    14   13   14 ar   
    15   14   15 ar   
    16   10   15 ar   
    17   14   16 1    
    18   16   17 1    
    19   17   18 1    
    20   18   19 2    
    21   13   19 1    
    22   19   20 1    
    23   17   21 2    
    24    3   22 1    
    25    4   23 1    
    26    6   24 1    
    27    7   25 1    
    28    8   26 1    
    29    8   27 1    
    30   11   28 1    
    31   12   29 1    
    32   15   30 1    
    33   18   31 1    
    34   20   32 1    
    35   20   33 1    
    36   20   34 1    
@<TRIPOS>SUBSTRUCTURE
     1 ****        2 TEMP              0 ****  ****    0 ROOT 
@<TRIPOS>NORMAL
@<TRIPOS>FF_PBC
FORCE_FIELD_SETUP_FEATURE Force Field Setup information
v1.0  0 0.000000 0.000000 0.000000 0.000000 0.000000 0.000000 NONE 0 0 0 0 1 0 0 0 0 0 0 0 0
@<TRIPOS>RENDERING_ATTRS
ANTIALIASED_LINES 
*
