#	Name:			PISM00358
#	Creating user name:	baoopengkun
#	Creation time:		Sun Mar 31 20:36:50 2019

#	Modifying user name:	baoopengkun
#	Modification time:	Sun Mar 31 20:45:24 2019

@<TRIPOS>MOLECULE
PISM00358
   49    50     1     1     0
SMALL
GAST_HUCK


@<TRIPOS>ATOM
      1 C1         -0.2979    9.3889   -2.6188 C.2       1 <1>         0.0145 
      2 C2         -1.1543    8.3822   -2.8393 C.2       1 <1>        -0.0174 
      3 C3         -2.6026    8.4822   -2.5694 C.2       1 <1>         0.1066 
      4 C4         -2.9661    8.0605   -1.3437 C.2       1 <1>         0.0056 
      5 N5         -3.6457    8.9179   -3.2794 N.pl3     1 <1>        -0.1845 
      6 C6         -4.6972    8.7463   -2.5178 C.2       1 <1>         0.1268 
      7 N7         -4.3774    8.2722   -1.4044 N.2       1 <1>        -0.3071 
      8 C8         -3.6730    9.3891   -4.5241 C.2       1 <1>         0.1195 
      9 C9         -2.4140    9.3226   -5.3991 C.3       1 <1>         0.1319 
     10 O10        -2.1877    7.9561   -5.8024 O.3       1 <1>        -0.3711 
     11 C11        -2.0969   10.2272   -6.6560 C.3       1 <1>         0.0047 
     12 C12        -2.2885   11.7417   -6.3316 C.3       1 <1>        -0.0551 
     13 C13        -0.5797   10.0254   -7.0021 C.3       1 <1>        -0.0551 
     14 C14        -2.8914    9.8417   -7.9526 C.3       1 <1>        -0.0551 
     15 C15        -4.7674    9.9220   -5.0989 C.2       1 <1>        -0.0352 
     16 C16        -6.0773   10.3361   -4.4720 C.ar      1 <1>        -0.0509 
     17 C17        -6.0831   11.2780   -3.4377 C.ar      1 <1>        -0.0674 
     18 C18        -7.2924   11.6668   -2.8547 C.ar      1 <1>        -0.0570 
     19 C19        -8.4946   11.1165   -3.3084 C.ar      1 <1>         0.0312 
     20 C20        -8.4895   10.1846   -4.3503 C.ar      1 <1>        -0.0570 
     21 C21        -7.2806    9.7937   -4.9334 C.ar      1 <1>        -0.0674 
     22 Cl22      -10.0094   11.5961   -2.5723 Cl        1 <1>        -0.0782 
     23 H23         0.7636    9.2353   -2.8168 H         1 <1>         0.0580 
     24 O24         0.1831   11.5426   -1.9049 O.2       1 <1>        -0.3696 
     25 O25        -1.9878   11.0030   -1.9186 O.3       1 <1>        -0.2854 
     26 C26        -0.6927   10.7192   -2.1206 C.2       1 <1>         0.2402 
     27 H2         -0.7721    7.4304   -3.2094 H         1 <1>         0.0748 
     28 H3         -2.3667    7.6648   -0.5241 H         1 <1>         0.0600 
     29 H4         -5.7647    8.8908   -2.6387 H         1 <1>         0.1316 
     30 H5         -1.6445    9.7020   -4.7298 H         1 <1>         0.0853 
     31 H6         -2.2909    7.3102   -5.1130 H         1 <1>         0.2142 
     32 H7         -2.0129   12.3537   -7.2042 H         1 <1>         0.0238 
     33 H8         -1.6516   12.0457   -5.4867 H         1 <1>         0.0238 
     34 H9         -3.3265   11.9861   -6.0710 H         1 <1>         0.0238 
     35 H10        -0.3857    8.9801   -7.2885 H         1 <1>         0.0238 
     36 H11         0.0775   10.2739   -6.1542 H         1 <1>         0.0238 
     37 H12        -0.2687   10.6672   -7.8413 H         1 <1>         0.0238 
     38 H13        -2.3130   10.0702   -8.8607 H         1 <1>         0.0238 
     39 H14        -3.8302   10.3960   -8.0798 H         1 <1>         0.0238 
     40 H15        -3.1135    8.7646   -7.9695 H         1 <1>         0.0238 
     41 H16        -4.8100   10.1524   -6.1497 H         1 <1>         0.0308 
     42 H17        -5.1485   11.7054   -3.0887 H         1 <1>         0.0542 
     43 H18        -7.3000   12.3956   -2.0512 H         1 <1>         0.0600 
     44 H19        -9.4247    9.7649   -4.7057 H         1 <1>         0.0600 
     45 H20        -7.2748    9.0682   -5.7406 H         1 <1>         0.0542 
     46 C46        -2.2243   12.3256   -1.3969 C.3       1 <1>         0.0637 
     47 H1         -1.7291   12.4637   -0.4218 H         1 <1>         0.0574 
     48 H21        -3.3088   12.4417   -1.2553 H         1 <1>         0.0574 
     49 H22        -1.8771   13.1016   -2.0988 H         1 <1>         0.0574 
@<TRIPOS>BOND
     1    2    1 2    
     2    2    3 1    
     3    3    4 2    
     4    3    5 1    
     5    5    6 1    
     6    6    7 2    
     7    4    7 1    
     8    5    8 1    
     9    8    9 1    
    10    9   10 1    
    11    9   11 1    
    12   11   12 1    
    13   11   13 1    
    14   11   14 1    
    15    8   15 2    
    16   15   16 1    
    17   16   17 ar   
    18   17   18 ar   
    19   18   19 ar   
    20   19   20 ar   
    21   20   21 ar   
    22   16   21 ar   
    23   19   22 1    
    24    1   23 1    
    25   26   24 2    
    26   26   25 1    
    27    1   26 1    
    28    2   27 1    
    29    4   28 1    
    30    6   29 1    
    31    9   30 1    
    32   10   31 1    
    33   12   32 1    
    34   12   33 1    
    35   12   34 1    
    36   13   35 1    
    37   13   36 1    
    38   13   37 1    
    39   14   38 1    
    40   14   39 1    
    41   14   40 1    
    42   15   41 1    
    43   17   42 1    
    44   18   43 1    
    45   20   44 1    
    46   21   45 1    
    47   25   46 1    
    48   46   47 1    
    49   46   48 1    
    50   46   49 1    
@<TRIPOS>SUBSTRUCTURE
     1 ****        2 TEMP              0 ****  ****    0 ROOT 
@<TRIPOS>NORMAL
@<TRIPOS>FF_PBC
FORCE_FIELD_SETUP_FEATURE Force Field Setup information
v1.0  0 0.000000 0.000000 0.000000 0.000000 0.000000 0.000000 NONE 0 0 0 0 1 0 0 0 0 0 0 0 0
