#	Name:			PISM00534
#	Creating user name:	malab
#	Creation time:		Thu Apr 04 21:45:47 2019

#	Modifying user name:	malab
#	Modification time:	Thu Apr 04 21:48:08 2019

@<TRIPOS>MOLECULE
PISM00534
   15    15     1     1     0
SMALL
GAST_HUCK


@<TRIPOS>ATOM
      1 O1         22.0646    8.3609   -8.5159 O.2       1 <1>        -0.3571 
      2 C2         22.7537    8.6167   -9.4884 C.2       1 <1>         0.2607 
      3 O3         22.2709    8.2597  -10.6814 O.3       1 <1>        -0.2934 
      4 C4         24.0814    9.3198   -9.2738 C.ar      1 <1>         0.0623 
      5 C5         24.2487   10.1094   -8.1296 C.ar      1 <1>        -0.0402 
      6 C6         25.4407   10.8064   -7.9114 C.ar      1 <1>        -0.0416 
      7 C7         26.4827   10.7182   -8.8374 C.ar      1 <1>         0.0592 
      8 C8         26.3346    9.9124   -9.9698 C.ar      1 <1>         0.0601 
      9 C9         25.1480    9.2020  -10.1745 C.ar      1 <1>        -0.0263 
     10 Cl10       27.9643   11.6154   -8.5711 Cl        1 <1>        -0.0657 
     11 H1         22.7847    8.5592  -11.4182 H         1 <1>         0.2523 
     12 H2         23.4468   10.1886   -7.4016 H         1 <1>         0.0672 
     13 H3         25.5588   11.4185   -7.0228 H         1 <1>         0.0635 
     14 Cl14       27.6342    9.7840  -11.1384 Cl        1 <1>        -0.0689 
     15 H5         25.0793    8.5522  -11.0390 H         1 <1>         0.0678 
@<TRIPOS>BOND
     1    2    1 2    
     2    2    3 1    
     3    2    4 1    
     4    4    5 ar   
     5    5    6 ar   
     6    6    7 ar   
     7    7    8 ar   
     8    8    9 ar   
     9    4    9 ar   
    10    7   10 1    
    11    3   11 1    
    12    5   12 1    
    13    6   13 1    
    14    8   14 1    
    15    9   15 1    
@<TRIPOS>SUBSTRUCTURE
     1 ****        2 TEMP              0 ****  ****    0 ROOT 
@<TRIPOS>NORMAL
@<TRIPOS>FF_PBC
FORCE_FIELD_SETUP_FEATURE Force Field Setup information
v1.0  0 0.000000 0.000000 0.000000 0.000000 0.000000 0.000000 NONE 0 0 0 0 1 0 0 0 0 0 0 0 0
