#	Name:			PISM00898
#	Creating user name:	baoopengkun
#	Creation time:		Fri Dec 14 10:03:55 2018

#	Modifying user name:	baoopengkun
#	Modification time:	Fri Dec 14 10:15:41 2018

@<TRIPOS>MOLECULE
PISM00898
   34    35     1     1     0
SMALL
GAST_HUCK
INVALID_CHARGES

@<TRIPOS>ATOM
      1 C1         13.1807   14.4177   -1.2657 C.ar      1 <1>        -0.0398 
      2 C2         13.3683   15.3783   -2.2638 C.ar      1 <1>        -0.0722 
      3 C3         12.2895   16.1502   -2.7042 C.ar      1 <1>        -0.0740 
      4 C4         11.0238   15.9636   -2.1419 C.ar      1 <1>        -0.0722 
      5 C5         10.8376   15.0024   -1.1444 C.ar      1 <1>        -0.0398 
      6 C6         11.9121   14.2201   -0.7078 C.ar      1 <1>         0.0661 
      7 N7         10.6161   12.2477   -0.0938 N.am      1 <1>         0.0000 
      8 C8         10.8220   11.5125   -1.2169 C.2       1 <1>         0.3530 
      9 O9          9.9829   10.7536   -1.6767 O.2       1 <1>        -0.3603 
     10 O10        12.0213   11.6920   -1.7892 O.3       1 <1>        -0.2086 
     11 C11        12.2278   10.9244   -2.9870 C.3       1 <1>         0.2428 
     12 C12        11.2192   11.2151   -4.0735 C.2       1 <1>        -0.0021 
     13 C13        10.6335   10.0842   -4.4646 C.2       1 <1>         0.0291 
     14 C14        11.2556    9.0615   -3.6290 C.2       1 <1>         0.2494 
     15 O15        12.1484    9.5041   -2.7509 O.3       1 <1>        -0.2314 
     16 C16         9.5740    9.8857   -5.5133 C.3       1 <1>        -0.0323 
     17 O17        10.9794    7.8783   -3.7297 O.2       1 <1>        -0.3691 
     18 C18        11.6711   13.1533    0.3680 C.3       1 <1>         0.0000 
     19 C19         9.3276   12.1122    0.5862 C.3       1 <1>         0.0000 
     20 H1         14.0262   13.8258   -0.9303 H         1 <1>         0.0000 
     21 H2         14.3527   15.5250   -2.6977 H         1 <1>         0.0000 
     22 H3         12.4346   16.8938   -3.4818 H         1 <1>         0.0000 
     23 H4         10.1856   16.5651   -2.4797 H         1 <1>         0.0000 
     24 H5          9.8530   14.8636   -0.7091 H         1 <1>         0.0000 
     25 H6         13.2333   11.1588   -3.3683 H         1 <1>         0.0000 
     26 H7         11.0087   12.2066   -4.4734 H         1 <1>         0.0000 
     27 H8          9.4824   10.7788   -6.1495 H         1 <1>         0.0000 
     28 H9          8.6086    9.6937   -5.0223 H         1 <1>         0.0000 
     29 H10         9.8346    9.0233   -6.1446 H         1 <1>         0.0000 
     30 H11        12.5826   12.5733    0.5820 H         1 <1>         0.0000 
     31 H12        11.3942   13.6797    1.2938 H         1 <1>         0.0000 
     32 H13         8.5141   12.4049   -0.0954 H         1 <1>         0.0000 
     33 H14         9.2590   12.7419    1.4854 H         1 <1>         0.0000 
     34 H15         9.1751   11.0657    0.8923 H         1 <1>         0.0000 
@<TRIPOS>BOND
     1    1    2 ar   
     2    2    3 ar   
     3    4    3 ar   
     4    5    4 ar   
     5    6    5 ar   
     6    6    1 ar   
     7    7    8 am   
     8   18    7 1    
     9    8    9 2    
    10    8   10 1    
    11   10   11 1    
    12   11   12 1    
    13   12   13 2    
    14   14   13 1    
    15   15   14 1    
    16   11   15 1    
    17   13   16 1    
    18   14   17 2    
    19    6   18 1    
    20    7   19 1    
    21    1   20 1    
    22    2   21 1    
    23    3   22 1    
    24    4   23 1    
    25    5   24 1    
    26   11   25 1    
    27   12   26 1    
    28   16   27 1    
    29   16   28 1    
    30   16   29 1    
    31   18   30 1    
    32   18   31 1    
    33   19   32 1    
    34   19   33 1    
    35   19   34 1    
@<TRIPOS>SUBSTRUCTURE
     1 ****        2 TEMP              0 ****  ****    0 ROOT 
@<TRIPOS>NORMAL
@<TRIPOS>FF_PBC
FORCE_FIELD_SETUP_FEATURE Force Field Setup information
v1.0  0 0.000000 0.000000 0.000000 0.000000 0.000000 0.000000 NONE 0 0 0 0 1 0 0 0 0 0 0 0 0
