#	Name:			PISM01200
#	Creating user name:	14062
#	Creation time:		Sun Apr 07 00:20:43 2019

#	Modifying user name:	14062
#	Modification time:	Sun Apr 07 00:22:49 2019

@<TRIPOS>MOLECULE
PISM01200
   52    54     2     1     0
SMALL
GAST_HUCK


@<TRIPOS>ATOM
      1 C1        -14.5716    6.9540    4.5480 C.ar      1 BENZYL      0.0824 
      2 N2        -15.7669    7.5365    4.3163 N.ar      1 BENZYL     -0.2616 
      3 C2        -16.9107    6.9163    4.6773 C.ar      1 BENZYL      0.1326 
      4 C3        -16.8655    5.6795    5.3250 C.ar      1 BENZYL      0.1183 
      5 N5        -18.0098    5.0617    5.6789 N.ar      1 BENZYL     -0.2668 
      6 C5        -19.2040    5.6221    5.4021 C.ar      1 BENZYL      0.1670 
      7 N7        -19.2805    6.8187    4.7857 N.ar      1 BENZYL     -0.2298 
      8 C7        -18.1637    7.4783    4.4184 C.ar      1 BENZYL      0.1540 
      9 N9        -15.6712    5.1130    5.5900 N.ar      1 BENZYL     -0.2649 
     10 C10       -14.5274    5.7202    5.2103 C.ar      1 BENZYL      0.0478 
     11 C11       -13.3030    7.6610    4.0643 C.3       1 BENZYL      0.0801 
     12 N12       -13.0126    8.8264    4.8983 N.pl3     2 BENZYL     -0.3056 
     13 C2        -11.8613    8.9225    5.6064 C.ar      2 BENZYL      0.0453 
     14 C3        -11.3956    7.8532    6.3772 C.ar      2 BENZYL     -0.0381 
     15 C4        -10.1628    7.9401    7.0315 C.ar      2 BENZYL     -0.0535 
     16 C5         -9.3807    9.0985    6.9447 C.ar      2 BENZYL      0.0363 
     17 C6         -9.8741   10.1835    6.2083 C.ar      2 BENZYL     -0.0535 
     18 C7        -11.1158   10.1046    5.5693 C.ar      2 BENZYL     -0.0381 
     19 N19       -20.3361    4.9757    5.7464 N.pl3     1 BENZYL     -0.3051 
     20 N20       -18.2765    8.6764    3.8022 N.pl3     1 BENZYL     -0.3052 
     21 H1        -13.5821    5.2351    5.4239 H         1 BENZYL      0.0952 
     22 C22        -8.0311    9.1222    7.6385 C.2       2 BENZYL      0.1975 
     23 O23        -7.5039    8.0491    7.8777 O.2       2 BENZYL     -0.3907 
     24 N24        -7.4181   10.2768    7.9892 N.am      2 BENZYL     -0.2654 
     25 C25        -6.1003   10.2562    8.6317 C.3       2 BENZYL      0.1434 
     26 C26        -5.2019   11.2535    7.9261 C.2       2 BENZYL      0.2571 
     27 O27        -4.6912   12.1884    8.5177 O.2       2 BENZYL     -0.3680 
     28 O28        -4.9727   11.1027    6.6169 O.3       2 BENZYL     -0.2910 
     29 C29        -6.2996   10.5585   10.1425 C.3       2 BENZYL      0.0071 
     30 C30        -5.0095   10.3643   10.9883 C.3       2 BENZYL      0.0528 
     31 C31        -5.2655   10.6267   12.4561 C.2       2 BENZYL      0.2314 
     32 O32        -6.3733   10.9349   12.8598 O.2       2 BENZYL     -0.3706 
     33 O33        -4.2579   10.5163   13.3278 O.3       2 BENZYL     -0.2927 
     34 H2        -13.5059    8.0107    3.0394 H         1 BENZYL      0.0717 
     35 H3        -12.4550    6.9607    4.0038 H         1 BENZYL      0.0717 
     36 H4        -13.6529    9.6368    4.8643 H         2 BENZYL      0.1805 
     37 H5        -11.9912    6.9537    6.4777 H         2 BENZYL      0.0530 
     38 H6         -9.8154    7.0934    7.6152 H         2 BENZYL      0.0636 
     39 H7         -9.3017   11.0974    6.1054 H         2 BENZYL      0.0636 
     40 H8        -11.4979   10.9656    5.0303 H         2 BENZYL      0.0530 
     41 H9        -21.2524    5.3980    5.5447 H         1 BENZYL      0.1844 
     42 H10       -20.2815    4.0584    6.2095 H         1 BENZYL      0.1844 
     43 H11       -17.4325    9.1947    3.5169 H         1 BENZYL      0.1886 
     44 H12       -19.2088    9.0727    3.6175 H         1 BENZYL      0.1886 
     45 H13        -7.8544   11.1680    7.8721 H         2 BENZYL      0.1874 
     46 H14        -5.5971    9.2796    8.5373 H         2 BENZYL      0.0817 
     47 H15        -5.4177   10.3603    6.2244 H         2 BENZYL      0.2540 
     48 H16        -7.0728    9.8708   10.5245 H         2 BENZYL      0.0339 
     49 H17        -6.6724   11.5892   10.2595 H         2 BENZYL      0.0339 
     50 H18        -4.2177   11.0483   10.6495 H         2 BENZYL      0.0521 
     51 H19        -4.6498    9.3291   10.8815 H         2 BENZYL      0.0521 
     52 H20        -3.4239   10.2761   12.9433 H         2 BENZYL      0.2539 
@<TRIPOS>BOND
     1    2    3 ar   
     2    3    4 ar   
     3    3    8 ar   
     4    8    7 ar   
     5    7    6 ar   
     6    6    5 ar   
     7    5    4 ar   
     8    2    1 ar   
     9    4    9 ar   
    10    9   10 ar   
    11    1   10 ar   
    12    1   11 1    
    13   12   13 1    
    14   13   14 ar   
    15   13   18 ar   
    16   18   17 ar   
    17   17   16 ar   
    18   16   15 ar   
    19   15   14 ar   
    20   11   12 1    
    21    6   19 1    
    22    8   20 1    
    23   10   21 1    
    24   16   22 1    
    25   22   23 2    
    26   22   24 am   
    27   24   25 1    
    28   25   26 1    
    29   26   27 2    
    30   26   28 1    
    31   25   29 1    
    32   29   30 1    
    33   30   31 1    
    34   31   32 2    
    35   31   33 1    
    36   11   34 1    
    37   11   35 1    
    38   12   36 1    
    39   14   37 1    
    40   15   38 1    
    41   17   39 1    
    42   18   40 1    
    43   19   41 1    
    44   19   42 1    
    45   20   43 1    
    46   20   44 1    
    47   24   45 1    
    48   25   46 1    
    49   28   47 1    
    50   29   48 1    
    51   29   49 1    
    52   30   50 1    
    53   30   51 1    
    54   33   52 1    
@<TRIPOS>SUBSTRUCTURE
     1 BENZYL      2 PERM              0 ****  ****    1 ROOT 
     2 BENZYL     12 PERM              0 ****  ****    1  
@<TRIPOS>NORMAL
@<TRIPOS>FF_PBC
FORCE_FIELD_SETUP_FEATURE Force Field Setup information
v1.0  0 0.000000 0.000000 0.000000 0.000000 0.000000 0.000000 NONE 0 0 0 0 1 0 0 0 0 0 0 0 0
