#	Name:			PISM00410
#	Creating user name:	malab
#	Creation time:		Wed Apr 10 23:20:19 2019

#	Modifying user name:	malab
#	Modification time:	Wed Apr 10 23:21:04 2019

@<TRIPOS>MOLECULE
PISM00410
   38    38     1     2     0
SMALL
USER_CHARGES


@<TRIPOS>ATOM
      1 C1        -12.6320   -0.0552    7.6927 C.3       1 <1>         0.0000 
      2 C2        -12.2409    1.3673    8.1889 C.3       1 <1>         0.0000 
      3 C3        -12.4298    1.4571    9.6785 C.2       1 <1>         0.0000 
      4 C4        -13.4857    0.6735   10.3408 C.2       1 <1>         0.0000 
      5 C5        -14.2741   -0.1632    9.6517 C.2       1 <1>         0.0000 
      6 C6        -14.0961   -0.3467    8.1586 C.3       1 <1>         0.0000 
      7 C7        -11.6170   -1.0926    8.2683 C.3       1 <1>         0.0000 
      8 C8        -12.5540   -0.0922    6.1374 C.3       1 <1>         0.0000 
      9 O9        -11.7064    2.1808   10.3440 O.2       1 <1>         0.0000 
     10 C10       -15.3888   -0.9428   10.3149 C.3       1 <1>         0.0000 
     11 H1        -12.8665    2.1425    7.7207 H         1 <1>         0.0000 
     12 H2        -11.1914    1.5839    7.9330 H         1 <1>         0.0000 
     13 H3        -13.6121    0.8001   11.4161 H         1 <1>         0.0000 
     14 C14       -14.5544   -1.7251    7.7313 C.2       1 <1>         0.0000 
     15 F15       -14.9111    0.5963    7.6085 F         1 <1>         0.0000 
     16 H5        -11.7664   -2.0895    7.8291 H         1 <1>         0.0000 
     17 H6        -11.7058   -1.1814    9.3610 H         1 <1>         0.0000 
     18 H7        -10.5854   -0.7874    8.0344 H         1 <1>         0.0000 
     19 H8        -12.8134   -1.0916    5.7569 H         1 <1>         0.0000 
     20 H9        -11.5340    0.1489    5.7988 H         1 <1>         0.0000 
     21 H10       -13.2479    0.6361    5.6905 H         1 <1>         0.0000 
     22 H11       -16.3197   -0.7998    9.7453 H         1 <1>         0.0000 
     23 H12       -15.5691   -0.6134   11.3495 H         1 <1>         0.0000 
     24 H13       -15.1462   -2.0158   10.3403 H         1 <1>         0.0000 
     25 C25       -15.5613   -1.9441    6.8761 C.2       1 <1>         0.0000 
     26 H26       -16.1113   -1.1124    6.4380 H         1 <1>         0.0000 
     27 H14       -14.0472   -2.5925    8.1518 H         1 <1>         0.0000 
     28 H15       -17.5023   -4.6992    6.1747 H         1 <1>         0.0000 
     29 H16       -18.9978   -1.3054    7.9200 H         1 <1>         0.0000 
     30 H17       -14.7720   -5.0553    6.7842 H         1 <1>         0.0000 
     31 H18       -13.9531   -3.7712    5.8455 H         1 <1>         0.0000 
     32 H19       -15.2171   -4.7590    5.0750 H         1 <1>         0.0000 
     33 C33       -15.9761   -3.3051    6.4792 C.2       1 <1>         0.0000 
     34 C39       -17.2602   -3.6917    6.5118 C.2       1 <1>         0.0000 
     35 C40       -18.4049   -2.8819    6.9797 C.2       1 <1>         0.0000 
     36 O41       -19.5383   -3.2819    6.7527 O.2       1 <1>         0.0000 
     37 O42       -18.1966   -1.7443    7.6526 O.3       1 <1>         0.0000 
     38 C43       -14.9150   -4.2782    6.0176 C.3       1 <1>         0.0000 
@<TRIPOS>BOND
     1    1    2 1    
     2    2    3 1    
     3    4    3 1    
     4    5    4 2    
     5    6    5 1    
     6    6    1 1    
     7    1    7 1    
     8    1    8 1    
     9    3    9 2    
    10    5   10 1    
    11    2   11 1    
    12    2   12 1    
    13    4   13 1    
    14   14    6 1    
    15    6   15 1    
    16    7   16 1    
    17    7   17 1    
    18    7   18 1    
    19    8   19 1    
    20    8   20 1    
    21    8   21 1    
    22   10   22 1    
    23   10   23 1    
    24   10   24 1    
    25   25   14 2    
    26   25   26 1    
    27   14   27 1    
    28   34   28 1    
    29   37   29 1    
    30   38   30 1    
    31   38   31 1    
    32   38   32 1    
    33   33   25 1    
    34   33   34 2    
    35   34   35 1    
    36   35   36 2    
    37   35   37 1    
    38   33   38 1    
@<TRIPOS>SUBSTRUCTURE
     1 ****        2 TEMP              0 ****  ****    0 ROOT 
@<TRIPOS>NORMAL
@<TRIPOS>FF_PBC
FORCE_FIELD_SETUP_FEATURE Force Field Setup information
v1.0  0 0.000000 0.000000 0.000000 0.000000 0.000000 0.000000 NONE 0 0 0 0 0 0 0 0 0 0 0 0 0
@<TRIPOS>RENDERING_ATTRS
ANTIALIASED_LINES 
1,2,3,4,5,6,7,8,9,10,14,25,26,33
