#	Name:			PISM00116
#	Creating user name:	baoopengkun
#	Creation time:		Mon Dec 17 14:05:23 2018

#	Modifying user name:	baoopengkun
#	Modification time:	Mon Dec 17 14:09:28 2018

@<TRIPOS>MOLECULE
PISM00116
   19    19     1     1     0
SMALL
GAST_HUCK


@<TRIPOS>ATOM
      1 H1          5.5417    6.0163    9.1977 H         1 <1>         0.1633 
      2 H2          8.4169    4.2774    8.8830 H         1 <1>         0.0602 
      3 H3          6.9155    6.4696   10.1499 H         1 <1>         0.1633 
      4 H4          8.6413    2.0241    7.8900 H         1 <1>         0.0515 
      5 H5          6.7632    3.4437    4.2826 H         1 <1>         0.0515 
      6 H6          6.5461    5.6890    5.2853 H         1 <1>         0.0602 
      7 N7          6.4796    6.3563    9.2577 N.am      1 <1>        -0.2623 
      8 S8          7.2984    6.7338    7.8946 S.o2      1 <1>         0.0600 
      9 O9          6.4415    7.5621    7.0702 O.2       1 <1>        -0.1522 
     10 O10         8.6178    7.2037    8.2667 O.2       1 <1>        -0.1522 
     11 C11         7.4560    5.1255    7.1552 C.ar      1 <1>         0.0945 
     12 C12         8.0520    4.0895    7.8784 C.ar      1 <1>        -0.0471 
     13 C13         8.1787    2.8176    7.3121 C.ar      1 <1>        -0.0429 
     14 C14         7.7147    2.5684    6.0145 C.ar      1 <1>         0.0353 
     15 C15         7.1264    3.6134    5.2911 C.ar      1 <1>        -0.0429 
     16 C16         6.9997    4.8859    5.8564 C.ar      1 <1>        -0.0471 
     17 N17         7.8336    1.3335    5.4663 N.pl3     1 <1>        -0.3369 
     18 H7          8.2734    0.5645    5.9938 H         1 <1>         0.1719 
     19 H8          7.4862    1.1456    4.5140 H         1 <1>         0.1719 
@<TRIPOS>BOND
     1    7    1 1    
     2   12    2 1    
     3   13    4 1    
     4   15    5 1    
     5   16    6 1    
     6   17   18 1    
     7    3    7 1    
     8    7    8 1    
     9    8    9 2    
    10    8   10 2    
    11    8   11 1    
    12   11   12 ar   
    13   12   13 ar   
    14   13   14 ar   
    15   15   14 ar   
    16   16   15 ar   
    17   11   16 ar   
    18   14   17 1    
    19   17   19 1    
@<TRIPOS>SUBSTRUCTURE
     1 ****        3 TEMP              0 ****  ****    0 ROOT 
@<TRIPOS>NORMAL
@<TRIPOS>FF_PBC
FORCE_FIELD_SETUP_FEATURE Force Field Setup information
v1.0  0 0.000000 0.000000 0.000000 0.000000 0.000000 0.000000 NONE 0 0 0 0 1 0 0 0 0 0 0 0 0
