#	Name:			PISM00576
#	Creating user name:	baoopengkun
#	Creation time:		Wed Dec 19 10:55:03 2018

#	Modifying user name:	baoopengkun
#	Modification time:	Wed Dec 19 10:57:57 2018

@<TRIPOS>MOLECULE
PISM00576
   14    14     1     1     0
SMALL
USER_CHARGES


@<TRIPOS>ATOM
      1 Cl1        22.3673   28.9009  -42.9571 Cl        1 <1>         0.0000 
      2 C2         21.4577   28.2940  -41.5900 C.ar      1 <1>         0.0000 
      3 C3         20.7144   27.1162  -41.7064 C.ar      1 <1>         0.0000 
      4 C4         19.9924   26.6440  -40.6052 C.ar      1 <1>         0.0000 
      5 C5         20.0381   27.3724  -39.4120 C.ar      1 <1>         0.0000 
      6 C6         20.7965   28.5446  -39.3480 C.ar      1 <1>         0.0000 
      7 N7         21.4830   28.9749  -40.4262 N.ar      1 <1>         0.0000 
      8 Cl8        20.8645   29.4702  -37.8638 Cl        1 <1>         0.0000 
      9 C9         19.1779   25.3714  -40.6998 C.2       1 <1>         0.0000 
     10 O10        19.1529   24.7488  -41.7513 O.2       1 <1>         0.0000 
     11 O11        18.4960   24.9456  -39.6300 O.3       1 <1>         0.0000 
     12 H1         20.7035   26.5788  -42.6486 H         1 <1>         0.0000 
     13 H2         19.4918   27.0379  -38.5367 H         1 <1>         0.0000 
     14 H3         18.0142   24.1387  -39.7802 H         1 <1>         0.0000 
@<TRIPOS>BOND
     1    2    1 1    
     2    2    3 ar   
     3    3    4 ar   
     4    4    5 ar   
     5    5    6 ar   
     6    6    7 ar   
     7    2    7 ar   
     8    6    8 1    
     9    4    9 1    
    10    9   10 2    
    11    9   11 1    
    12    3   12 1    
    13    5   13 1    
    14   11   14 1    
@<TRIPOS>SUBSTRUCTURE
     1 ****        2 TEMP              0 ****  ****    0 ROOT 
@<TRIPOS>NORMAL
@<TRIPOS>FF_PBC
FORCE_FIELD_SETUP_FEATURE Force Field Setup information
v1.0  0 0.000000 0.000000 0.000000 0.000000 0.000000 0.000000 NONE 0 0 0 0 0 0 0 0 0 0 0 0 0
