#	Name:			PISM00849.1
#	Creating user name:	baoopengkun
#	Creation time:		Thu Dec 13 15:12:19 2018

#	Modifying user name:	baoopengkun
#	Modification time:	Thu Dec 13 15:16:07 2018

@<TRIPOS>MOLECULE
PISM00849.1
   24    25     1     1     0
SMALL
GAST_HUCK


@<TRIPOS>ATOM
      1 Cl1         1.9135   -4.0228    4.7794 Cl        1 <1>        -0.0810 
      2 C2          0.9200   -2.2439    2.9576 C.ar      1 <1>        -0.0426 
      3 C3          1.9582   -2.5423    3.8445 C.ar      1 <1>         0.0291 
      4 C4          3.0316   -1.6586    3.9855 C.ar      1 <1>        -0.0564 
      5 C5          3.0701   -0.4821    3.2315 C.ar      1 <1>        -0.0313 
      6 C6          2.0435   -0.1941    2.3281 C.ar      1 <1>         0.1127 
      7 C7          0.9584   -1.0679    2.2033 C.ar      1 <1>         0.0689 
      8 Cl8        -0.3559   -0.6948    1.1064 Cl        1 <1>        -0.0787 
      9 O9          2.1074    0.9668    1.5585 O.3       1 <1>        -0.2696 
     10 C10         2.6158    0.7775    0.2294 C.3       1 <1>         0.2360 
     11 O11         2.6824    2.0722   -0.4004 O.3       1 <1>        -0.2313 
     12 C12         3.9728    2.2899   -0.6207 C.2       1 <1>         0.2495 
     13 C13         4.8682    1.2078   -0.2290 C.2       1 <1>         0.0292 
     14 C14         4.0449    0.2874    0.2687 C.2       1 <1>        -0.0019 
     15 C15         6.3639    1.1467   -0.3760 C.3       1 <1>        -0.0323 
     16 O16         4.3773    3.3234   -1.1248 O.2       1 <1>        -0.3691 
     17 H1          0.0829   -2.9261    2.8553 H         1 <1>         0.0601 
     18 H2          3.8333   -1.8874    4.6803 H         1 <1>         0.0597 
     19 H3          3.8969    0.2118    3.3436 H         1 <1>         0.0543 
     20 H4          1.9774    0.1100   -0.3719 H         1 <1>         0.1199 
     21 H5          4.3590   -0.6816    0.6546 H         1 <1>         0.0705 
     22 H6          6.6995    0.1057   -0.4963 H         1 <1>         0.0347 
     23 H7          6.8348    1.5764    0.5205 H         1 <1>         0.0347 
     24 H8          6.6770    1.7258   -1.2577 H         1 <1>         0.0347 
@<TRIPOS>BOND
     1    3    1 1    
     2    2    3 ar   
     3    3    4 ar   
     4    4    5 ar   
     5    5    6 ar   
     6    6    7 ar   
     7    2    7 ar   
     8    7    8 1    
     9    6    9 1    
    10    9   10 1    
    11   10   11 1    
    12   11   12 1    
    13   12   13 1    
    14   13   14 2    
    15   10   14 1    
    16   13   15 1    
    17   12   16 2    
    18    2   17 1    
    19    4   18 1    
    20    5   19 1    
    21   10   20 1    
    22   14   21 1    
    23   15   22 1    
    24   15   23 1    
    25   15   24 1    
@<TRIPOS>SUBSTRUCTURE
     1 ****        2 TEMP              0 ****  ****    0 ROOT 
@<TRIPOS>NORMAL
@<TRIPOS>FF_PBC
FORCE_FIELD_SETUP_FEATURE Force Field Setup information
v1.0  0 0.000000 0.000000 0.000000 0.000000 0.000000 0.000000 NONE 0 0 0 0 1 0 0 0 0 0 0 0 0
