#	Name:			PISM00163
#	Creating user name:	14062
#	Creation time:		Wed Jun 19 21:26:03 2019

#	Modifying user name:	14062
#	Modification time:	Wed Jun 19 21:28:56 2019

@<TRIPOS>MOLECULE
PISM00163
   56    59     2     1     0
SMALL
GAST_HUCK


@<TRIPOS>ATOM
      1 O1          1.7546   -0.4552    4.2786 O.3       1 BENZYL     -0.3373 
      2 C2          2.3512   -1.7642    4.1918 C.3       1 BENZYL      0.1133 
      3 C3          1.7618   -2.5392    2.9834 C.3       1 BENZYL      0.1119 
      4 C4          0.2174   -2.6153    3.1034 C.3       1 BENZYL      0.1144 
      5 C5         -0.3721   -1.1947    3.2851 C.3       1 BENZYL      0.1380 
      6 C6          0.3270   -0.4799    4.4713 C.3       1 BENZYL      0.2060 
      7 H1          2.1775   -2.3309    5.1221 H         1 BENZYL      0.0647 
      8 C8          3.8820   -1.5705    4.0334 C.3       1 BENZYL      0.0730 
      9 O9          2.3379   -3.8552    2.8590 O.3       1 BENZYL     -0.3865 
     10 H4          2.0027   -1.9864    2.0608 H         1 BENZYL      0.0647 
     11 H5         -0.0597   -3.2172    3.9862 H         1 BENZYL      0.0648 
     12 O12        -0.3568   -3.1961    1.9170 O.3       1 BENZYL     -0.3864 
     13 O13        -1.7918   -1.2921    3.5209 O.3       1 BENZYL     -0.3837 
     14 H8         -0.1654   -0.6060    2.3754 H         1 BENZYL      0.0675 
     15 H9          0.0729   -0.9819    5.4196 H         1 BENZYL      0.0987 
     16 O16        -0.0441    0.9063    4.5370 O.3       1 BENZYL     -0.2937 
     17 O17         4.5862   -2.8249    3.9945 O.3       1 BENZYL     -0.3924 
     18 C18        -1.4047    1.1481    4.7353 C.ar      1 BENZYL      0.1241 
     19 C19        -1.9787    0.9477    5.9953 C.ar      1 BENZYL      0.1219 
     20 C20        -3.3513    1.1653    6.1724 C.ar      1 BENZYL      0.0356 
     21 C21        -4.1352    1.6420    5.1166 C.ar      1 BENZYL      0.0807 
     22 C22        -3.5469    1.8671    3.8663 C.ar      1 BENZYL     -0.0422 
     23 C23        -2.1908    1.5928    3.6682 C.ar      1 BENZYL     -0.0030 
     24 O24        -1.1722    0.5294    7.0601 O.3       1 BENZYL     -0.3367 
     25 C2         -1.5838    1.7630    2.3250 C.ar      2 BENZYL     -0.0263 
     26 C3         -2.1468    1.1178    1.2192 C.ar      2 BENZYL     -0.0572 
     27 C4         -1.5612    1.2484   -0.0433 C.ar      2 BENZYL     -0.0630 
     28 C5         -0.4125    2.0286   -0.2035 C.ar      2 BENZYL     -0.0633 
     29 C6          0.1444    2.6846    0.8980 C.ar      2 BENZYL     -0.0630 
     30 C7         -0.4448    2.5573    2.1592 C.ar      2 BENZYL     -0.0572 
     31 O31        -5.4968    1.8831    5.3284 O.3       1 BENZYL     -0.3399 
     32 C2         -3.9926    0.8875    7.4813 C.ar      1 BENZYL     -0.0272 
     33 C3         -4.6374    1.9114    8.1821 C.ar      1 BENZYL     -0.0597 
     34 C4         -5.2299    1.6472    9.4204 C.ar      1 BENZYL     -0.0649 
     35 C5         -5.1787    0.3583    9.9594 C.ar      1 BENZYL     -0.0650 
     36 C6         -4.5388   -0.6672    9.2572 C.ar      1 BENZYL     -0.0649 
     37 C7         -3.9495   -0.4033    8.0175 C.ar      1 BENZYL     -0.0597 
     38 H2          4.2559   -1.0074    4.9034 H         1 BENZYL      0.0584 
     39 H3          4.0960   -0.9745    3.1303 H         1 BENZYL      0.0584 
     40 H6          2.1455   -4.4221    3.6008 H         1 BENZYL      0.2100 
     41 H7         -0.0162   -4.0685    1.7404 H         1 BENZYL      0.2100 
     42 H10        -2.2394   -1.7285    2.8013 H         1 BENZYL      0.2101 
     43 H11         4.3368   -3.3623    3.2469 H         1 BENZYL      0.2095 
     44 H12        -4.1373    2.2542    3.0425 H         1 BENZYL      0.0427 
     45 H13        -1.4280    0.9074    7.8946 H         1 BENZYL      0.2454 
     46 H14        -3.0375    0.5095    1.3393 H         2 BENZYL      0.0608 
     47 H15        -1.9981    0.7431   -0.8992 H         2 BENZYL      0.0613 
     48 H16         0.0463    2.1255   -1.1828 H         2 BENZYL      0.0604 
     49 H17         1.0347    3.2935    0.7742 H         2 BENZYL      0.0613 
     50 H18        -0.0147    3.0763    3.0100 H         2 BENZYL      0.0608 
     51 H19        -5.9797    2.1370    4.5501 H         1 BENZYL      0.2459 
     52 H20        -4.6780    2.9130    7.7655 H         1 BENZYL      0.0591 
     53 H21        -5.7299    2.4433    9.9636 H         1 BENZYL      0.0609 
     54 H22        -5.6360    0.1539   10.9227 H         1 BENZYL      0.0590 
     55 H23        -4.5000   -1.6688    9.6746 H         1 BENZYL      0.0609 
     56 H24        -3.4582   -1.2022    7.4706 H         1 BENZYL      0.0591 
@<TRIPOS>BOND
     1    1    2 1    
     2    2    3 1    
     3    4    3 1    
     4    5    4 1    
     5    6    5 1    
     6    6    1 1    
     7    2    7 1    
     8    2    8 1    
     9    3    9 1    
    10    3   10 1    
    11    4   11 1    
    12    4   12 1    
    13    5   13 1    
    14    5   14 1    
    15    6   15 1    
    16   16    6 1    
    17    8   17 1    
    18   18   16 1    
    19   19   18 ar   
    20   20   19 ar   
    21   20   21 ar   
    22   21   22 ar   
    23   22   23 ar   
    24   18   23 ar   
    25   32   20 1    
    26   25   26 ar   
    27   25   30 ar   
    28   30   29 ar   
    29   29   28 ar   
    30   27   28 ar   
    31   26   27 ar   
    32   25   23 1    
    33   19   24 1    
    34   32   33 ar   
    35   32   37 ar   
    36   37   36 ar   
    37   36   35 ar   
    38   34   35 ar   
    39   33   34 ar   
    40   21   31 1    
    41    8   38 1    
    42    8   39 1    
    43    9   40 1    
    44   12   41 1    
    45   13   42 1    
    46   17   43 1    
    47   22   44 1    
    48   24   45 1    
    49   26   46 1    
    50   27   47 1    
    51   28   48 1    
    52   29   49 1    
    53   30   50 1    
    54   31   51 1    
    55   33   52 1    
    56   34   53 1    
    57   35   54 1    
    58   36   55 1    
    59   37   56 1    
@<TRIPOS>SUBSTRUCTURE
     1 BENZYL     32 PERM              0 ****  ****    1  
     2 BENZYL     25 PERM              0 ****  ****    1 ROOT 
@<TRIPOS>NORMAL
@<TRIPOS>FF_PBC
FORCE_FIELD_SETUP_FEATURE Force Field Setup information
v1.0  0 0.000000 0.000000 0.000000 0.000000 0.000000 0.000000 NONE 0 0 0 0 1 0 0 0 0 0 0 0 0
