#	Name:			PISM00361
#	Creating user name:	malab
#	Creation time:		Wed Apr 10 00:29:15 2019

#	Modifying user name:	malab
#	Modification time:	Wed Apr 10 00:34:52 2019

@<TRIPOS>MOLECULE
PISM00361
   49    50     1     1     0
SMALL
USER_CHARGES


@<TRIPOS>ATOM
      1 C1         -6.7962    3.8514   -0.8184 C.2       1 <1>         0.0000 
      2 C2         -7.1751    4.0331   -2.1008 C.2       1 <1>         0.0000 
      3 N3         -8.5987    4.0006   -1.9803 N.2       1 <1>         0.0000 
      4 C4         -8.9200    3.8110   -0.7867 C.2       1 <1>         0.0000 
      5 N5         -7.8595    3.6882   -0.0283 N.pl3     1 <1>         0.0000 
      6 C6         -7.9377    3.4302    1.2745 C.2       1 <1>         0.0000 
      7 C7         -8.9582    4.0774    1.8880 C.2       1 <1>         0.0000 
      8 C8         -9.5115    4.1505    3.2944 C.ar      1 <1>         0.0000 
      9 C9         -6.9145    2.4364    1.8863 C.3       1 <1>         0.0000 
     10 C10        -5.3079    3.9685   -0.5582 C.3       1 <1>         0.0000 
     11 O11        -4.5812    3.0845   -1.4343 O.3       1 <1>         0.0000 
     12 C12        -7.2350    1.5427    3.1636 C.3       1 <1>         0.0000 
     13 C13        -6.6712    2.2274    4.4533 C.3       1 <1>         0.0000 
     14 C14        -8.7584    1.2155    3.3135 C.3       1 <1>         0.0000 
     15 C15        -6.5169    0.1539    3.1649 C.3       1 <1>         0.0000 
     16 O16        -6.7020    1.5991    0.7119 O.3       1 <1>         0.0000 
     17 C17       -10.7552    3.5648    3.5599 C.ar      1 <1>         0.0000 
     18 C18       -11.2872    3.5941    4.8525 C.ar      1 <1>         0.0000 
     19 C19       -10.5903    4.2356    5.8785 C.ar      1 <1>         0.0000 
     20 C20        -9.3748    4.8683    5.6038 C.ar      1 <1>         0.0000 
     21 C21        -8.8524    4.8525    4.3068 C.ar      1 <1>         0.0000 
     22 Cl22      -11.2397    4.2479    7.5044 Cl        1 <1>         0.0000 
     23 C23        -3.1518    3.2450   -1.3542 C.3       1 <1>         0.0000 
     24 C24        -5.4019    0.9921    0.5031 C.3       1 <1>         0.0000 
     25 H1         -6.5746    4.1895   -2.9969 H         1 <1>         0.0000 
     26 H2         -9.9814    3.7326   -0.5502 H         1 <1>         0.0000 
     27 H3         -9.5926    4.7878    1.3618 H         1 <1>         0.0000 
     28 H4         -6.0260    3.0191    2.1453 H         1 <1>         0.0000 
     29 H5         -4.9841    3.8805    0.4783 H         1 <1>         0.0000 
     30 H6         -5.0627    5.0027   -0.8485 H         1 <1>         0.0000 
     31 H7         -6.9693    1.6860    5.3650 H         1 <1>         0.0000 
     32 H8         -7.0204    3.2547    4.5454 H         1 <1>         0.0000 
     33 H9         -5.5700    2.2697    4.4313 H         1 <1>         0.0000 
     34 H10        -9.3161    1.4632    2.4000 H         1 <1>         0.0000 
     35 H11        -9.1737    1.7511    4.1746 H         1 <1>         0.0000 
     36 H12        -8.9659    0.1542    3.5168 H         1 <1>         0.0000 
     37 H13        -6.7116   -0.3897    4.1042 H         1 <1>         0.0000 
     38 H14        -5.4252    0.2596    3.0899 H         1 <1>         0.0000 
     39 H15        -6.9011   -0.4841    2.3553 H         1 <1>         0.0000 
     40 H16       -11.3117    3.0850    2.7608 H         1 <1>         0.0000 
     41 H17       -12.2402    3.1181    5.0578 H         1 <1>         0.0000 
     42 H18        -8.8380    5.3760    6.3977 H         1 <1>         0.0000 
     43 H19        -7.9394    5.3956    4.0812 H         1 <1>         0.0000 
     44 H20        -2.7833    3.0243   -0.3410 H         1 <1>         0.0000 
     45 H21        -2.8448    4.2626   -1.6407 H         1 <1>         0.0000 
     46 H22        -2.6943    2.5331   -2.0562 H         1 <1>         0.0000 
     47 H23        -5.3143   -0.0512    0.8238 H         1 <1>         0.0000 
     48 H24        -4.5574    1.5628    0.9149 H         1 <1>         0.0000 
     49 H25        -5.2857    0.9357   -0.5868 H         1 <1>         0.0000 
@<TRIPOS>BOND
     1    2    1 2    
     2    2    3 1    
     3    3    4 2    
     4    4    5 1    
     5    1    5 1    
     6    5    6 1    
     7    6    7 2    
     8    7    8 1    
     9    6    9 1    
    10    1   10 1    
    11   10   11 1    
    12    9   12 1    
    13   12   13 1    
    14   12   14 1    
    15   12   15 1    
    16    9   16 1    
    17    8   17 ar   
    18   17   18 ar   
    19   18   19 ar   
    20   19   20 ar   
    21   20   21 ar   
    22    8   21 ar   
    23   19   22 1    
    24   11   23 1    
    25   16   24 1    
    26    2   25 1    
    27    4   26 1    
    28    7   27 1    
    29    9   28 1    
    30   10   29 1    
    31   10   30 1    
    32   13   31 1    
    33   13   32 1    
    34   13   33 1    
    35   14   34 1    
    36   14   35 1    
    37   14   36 1    
    38   15   37 1    
    39   15   38 1    
    40   15   39 1    
    41   17   40 1    
    42   18   41 1    
    43   20   42 1    
    44   21   43 1    
    45   23   44 1    
    46   23   45 1    
    47   23   46 1    
    48   24   47 1    
    49   24   48 1    
    50   24   49 1    
@<TRIPOS>SUBSTRUCTURE
     1 ****        2 TEMP              0 ****  ****    0 ROOT 
@<TRIPOS>NORMAL
@<TRIPOS>FF_PBC
FORCE_FIELD_SETUP_FEATURE Force Field Setup information
v1.0  0 0.000000 0.000000 0.000000 0.000000 0.000000 0.000000 NONE 0 0 0 0 0 0 0 0 0 0 0 0 0
