#	Name:			PISM00086
#	Creating user name:	baoopengkun
#	Creation time:		Thu Dec 27 16:30:28 2018

#	Modifying user name:	baoopengkun
#	Modification time:	Thu Dec 27 16:32:18 2018

@<TRIPOS>MOLECULE
PISM00086
   47    48     1     1     0
SMALL
GAST_HUCK


@<TRIPOS>ATOM
      1 C1         10.8874    0.7086  -16.4911 C.3       1 <1>        -0.0634 
      2 C2          9.3418    0.5805  -16.4332 C.3       1 <1>        -0.0450 
      3 C3          8.7897    0.4400  -14.9850 C.3       1 <1>        -0.0156 
      4 C4          9.2825   -0.8434  -14.2615 C.3       1 <1>        -0.0541 
      5 C5          7.2480    0.4761  -15.0103 C.ar      1 <1>        -0.0512 
      6 C6          6.5199   -0.5505  -15.6243 C.ar      1 <1>        -0.0692 
      7 C7          5.1223   -0.5285  -15.6306 C.ar      1 <1>        -0.0445 
      8 C8          4.4305    0.5118  -15.0029 C.ar      1 <1>         0.0604 
      9 C9          5.1513    1.5539  -14.4142 C.ar      1 <1>        -0.0445 
     10 C10         6.5491    1.5366  -14.4193 C.ar      1 <1>        -0.0692 
     11 N11         3.0766    0.5266  -14.9703 N.pl3     1 <1>        -0.2376 
     12 C12         2.3843   -0.4262  -14.3964 C.2       1 <1>         0.1802 
     13 S13         3.2035   -1.7301  -13.6224 S.2       1 <1>        -0.2549 
     14 N14         1.0749   -0.3892  -14.3872 N.pl3     1 <1>        -0.2368 
     15 C15         0.3332   -1.3658  -13.8121 C.ar      1 <1>         0.0563 
     16 C16        -0.5049   -1.0583  -12.7360 C.ar      1 <1>        -0.0177 
     17 C17        -1.2770   -2.0508  -12.1218 C.ar      1 <1>         0.0515 
     18 C18        -1.2251   -3.3588  -12.6191 C.ar      1 <1>        -0.0515 
     19 C19        -0.3816   -3.6756  -13.6879 C.ar      1 <1>        -0.0814 
     20 C20         0.3888   -2.6782  -14.2915 C.ar      1 <1>        -0.0504 
     21 N21        -2.0671   -1.7252  -11.0681 N.pl3     1 <1>        -0.2423 
     22 C22        -2.1300   -2.4630   -9.9905 C.2       1 <1>         0.1974 
     23 C23        -3.0374   -2.0283   -8.8675 C.3       1 <1>         0.0311 
     24 O24        -1.4831   -3.4855   -9.8360 O.2       1 <1>        -0.3798 
     25 H1         11.3747   -0.2209  -16.1613 H         1 <1>         0.0231 
     26 H2         11.2313    1.5376  -15.8535 H         1 <1>         0.0231 
     27 H3         11.2069    0.9102  -17.5259 H         1 <1>         0.0231 
     28 H4          9.0346   -0.2816  -17.0462 H         1 <1>         0.0285 
     29 H5          8.9015    1.4878  -16.8807 H         1 <1>         0.0285 
     30 H6          9.1580    1.3002  -14.4003 H         1 <1>         0.0437 
     31 H7          9.0948   -1.7417  -14.8676 H         1 <1>         0.0252 
     32 H8          8.7535   -0.9522  -13.3015 H         1 <1>         0.0252 
     33 H9         10.3606   -0.7890  -14.0478 H         1 <1>         0.0252 
     34 H10         7.0303   -1.3775  -16.1049 H         1 <1>         0.0529 
     35 H11         4.5725   -1.3210  -16.1283 H         1 <1>         0.0519 
     36 H12         4.6216    2.3781  -13.9475 H         1 <1>         0.0519 
     37 H13         7.0846    2.3589  -13.9558 H         1 <1>         0.0529 
     38 H14         2.5970    1.3295  -15.4004 H         1 <1>         0.2177 
     39 H15         0.5754    0.4045  -14.8116 H         1 <1>         0.2192 
     40 H16        -0.5486   -0.0378  -12.3713 H         1 <1>         0.0440 
     41 H17        -1.8452   -4.1370  -12.1868 H         1 <1>         0.0435 
     42 H18        -0.3269   -4.6972  -14.0517 H         1 <1>         0.0558 
     43 H19         1.0258   -2.9230  -15.1354 H         1 <1>         0.0437 
     44 H20        -2.6155   -0.8540  -11.1163 H         1 <1>         0.2106 
     45 H21        -4.0731   -1.9598   -9.2315 H         1 <1>         0.0475 
     46 H22        -2.7172   -1.0454   -8.4919 H         1 <1>         0.0475 
     47 H23        -3.0032   -2.7506   -8.0378 H         1 <1>         0.0475 
@<TRIPOS>BOND
     1    2    1 1    
     2    2    3 1    
     3    3    4 1    
     4    3    5 1    
     5    5    6 ar   
     6    6    7 ar   
     7    7    8 ar   
     8    8    9 ar   
     9    9   10 ar   
    10    5   10 ar   
    11    8   11 1    
    12   11   12 1    
    13   12   13 2    
    14   12   14 1    
    15   14   15 1    
    16   15   16 ar   
    17   16   17 ar   
    18   17   18 ar   
    19   18   19 ar   
    20   19   20 ar   
    21   15   20 ar   
    22   17   21 1    
    23   21   22 1    
    24   22   23 1    
    25   22   24 2    
    26    1   25 1    
    27    1   26 1    
    28    1   27 1    
    29    2   28 1    
    30    2   29 1    
    31    3   30 1    
    32    4   31 1    
    33    4   32 1    
    34    4   33 1    
    35    6   34 1    
    36    7   35 1    
    37    9   36 1    
    38   10   37 1    
    39   11   38 1    
    40   14   39 1    
    41   16   40 1    
    42   18   41 1    
    43   19   42 1    
    44   20   43 1    
    45   21   44 1    
    46   23   45 1    
    47   23   46 1    
    48   23   47 1    
@<TRIPOS>SUBSTRUCTURE
     1 ****        2 TEMP              0 ****  ****    0 ROOT 
@<TRIPOS>NORMAL
@<TRIPOS>FF_PBC
FORCE_FIELD_SETUP_FEATURE Force Field Setup information
v1.0  0 0.000000 0.000000 0.000000 0.000000 0.000000 0.000000 NONE 0 0 0 0 1 0 0 0 0 0 0 0 0
