#	Name:			PISM00368
#	Creating user name:	malab
#	Creation time:		Tue Apr 02 20:32:38 2019

#	Modifying user name:	malab
#	Modification time:	Tue Apr 02 20:39:58 2019

@<TRIPOS>MOLECULE
PISM00368
   57    59     1     1     0
SMALL
GAST_HUCK


@<TRIPOS>ATOM
      1 N1          6.5088   -0.9903   -7.3143 N.2       1 <1>        -0.1730 
      2 C2          7.1026   -1.2431   -8.4193 C.2       1 <1>         0.0653 
      3 N3          6.1796   -0.6435   -9.3368 N.2       1 <1>        -0.2827 
      4 C4          5.2092   -0.1384   -8.7225 C.2       1 <1>         0.1489 
      5 N5          5.3284   -0.3125   -7.4347 N.pl3     1 <1>        -0.1236 
      6 C6          4.5252    0.0736   -6.4708 C.2       1 <1>         0.1347 
      7 C7          4.9873   -0.3273   -5.0736 C.3       1 <1>         0.1322 
      8 O8          6.3989   -0.0992   -4.8987 O.3       1 <1>        -0.3716 
      9 N9         -1.0657    1.7985   -2.0221 N.2       1 <1>        -0.0916 
     10 N10        -1.7380    2.4833   -1.0825 N.2       1 <1>        -0.2236 
     11 C11         3.3889    0.7617   -6.6880 C.2       1 <1>        -0.0370 
     12 C12         2.8994    2.2402   -4.6903 C.ar      1 <1>        -0.0693 
     13 C13         2.0633    2.6525   -3.6486 C.ar      1 <1>        -0.0312 
     14 C14         0.7599    2.1501   -3.5465 C.ar      1 <1>         0.1107 
     15 C15         0.3236    1.2001   -4.4756 C.ar      1 <1>        -0.0312 
     16 C16         1.1658    0.7719   -5.5055 C.ar      1 <1>        -0.0693 
     17 N17        -0.0888    2.5541   -2.5695 N.pl3     1 <1>        -0.1417 
     18 C18         2.4692    1.2677   -5.5981 C.ar      1 <1>        -0.0552 
     19 C19         4.5548   -1.7724   -4.6432 C.3       1 <1>         0.0043 
     20 C20         5.0692   -2.8746   -5.6172 C.3       1 <1>        -0.0552 
     21 C21         5.1170   -2.0695   -3.2199 C.3       1 <1>        -0.0552 
     22 C22         3.0004   -1.8639   -4.5888 C.3       1 <1>        -0.0552 
     23 C23        -1.0923    3.7720   -1.1058 C.2       1 <1>         0.0667 
     24 C24        -0.1191    3.7402   -2.0226 C.2       1 <1>         0.0851 
     25 C25        -1.5176    4.9100   -0.2063 C.3       1 <1>         0.0901 
     26 O26        -2.8830    5.2678   -0.4816 O.3       1 <1>        -0.3829 
     27 H1          8.0409   -1.7638   -8.6063 H         1 <1>         0.0879 
     28 H2          4.4280    0.3558   -9.2960 H         1 <1>         0.1387 
     29 H3          4.5566    0.3473   -4.3238 H         1 <1>         0.0846 
     30 H4          6.9280   -0.5985   -5.5134 H         1 <1>         0.2141 
     31 H5          3.0221    1.0198   -7.6773 H         1 <1>         0.0306 
     32 H6          3.8871    2.6795   -4.7946 H         1 <1>         0.0534 
     33 H7          2.4447    3.3583   -2.9199 H         1 <1>         0.0577 
     34 H8         -0.6800    0.7937   -4.3998 H         1 <1>         0.0577 
     35 H9          0.8051    0.0517   -6.2333 H         1 <1>         0.0534 
     36 H10         4.7285   -3.8672   -5.2850 H         1 <1>         0.0238 
     37 H11         6.1678   -2.8996   -5.6515 H         1 <1>         0.0238 
     38 H12         4.6832   -2.7157   -6.6350 H         1 <1>         0.0238 
     39 H13         4.8063   -3.0680   -2.8758 H         1 <1>         0.0238 
     40 H14         4.7516   -1.3292   -2.4917 H         1 <1>         0.0238 
     41 H15         6.2171   -2.0381   -3.2210 H         1 <1>         0.0238 
     42 H16         2.5710   -1.7169   -5.5903 H         1 <1>         0.0238 
     43 H17         2.5835   -1.1052   -3.9090 H         1 <1>         0.0238 
     44 H18         2.6786   -2.8528   -4.2280 H         1 <1>         0.0238 
     45 H19         0.5283    4.5807   -2.2645 H         1 <1>         0.0902 
     46 C46        -0.6029    6.1638   -0.2866 C.3       1 <1>        -0.0200 
     47 H21        -1.4865    4.5182    0.8230 H         1 <1>         0.0712 
     48 H22        -3.0096    5.5722   -1.3744 H         1 <1>         0.2122 
     49 H20         0.4374    5.8715   -0.0679 H         1 <1>         0.0307 
     50 C50        -1.0439    7.2545    0.7276 C.3       1 <1>        -0.0522 
     51 H24        -0.6452    6.5819   -1.3054 H         1 <1>         0.0307 
     52 H23        -2.0868    7.5501    0.5258 H         1 <1>         0.0265 
     53 C53        -0.1386    8.5104    0.6367 C.3       1 <1>        -0.0651 
     54 H26        -0.9938    6.8482    1.7517 H         1 <1>         0.0265 
     55 H25         0.9084    8.2456    0.8509 H         1 <1>         0.0230 
     56 H27        -0.4651    9.2670    1.3678 H         1 <1>         0.0230 
     57 H28        -0.1928    8.9520   -0.3708 H         1 <1>         0.0230 
@<TRIPOS>BOND
     1    2    1 2    
     2    2    3 1    
     3    3    4 2    
     4    4    5 1    
     5    1    5 1    
     6    5    6 1    
     7    6    7 1    
     8    7    8 1    
     9   17    9 1    
    10    9   10 2    
    11   10   23 1    
    12    6   11 2    
    13   18   12 ar   
    14   12   13 ar   
    15   13   14 ar   
    16   15   14 ar   
    17   16   15 ar   
    18   18   16 ar   
    19   11   18 1    
    20   14   17 1    
    21    7   19 1    
    22   19   20 1    
    23   19   21 1    
    24   19   22 1    
    25   24   23 2    
    26   17   24 1    
    27   23   25 1    
    28   25   26 1    
    29    2   27 1    
    30    4   28 1    
    31    7   29 1    
    32    8   30 1    
    33   11   31 1    
    34   12   32 1    
    35   13   33 1    
    36   15   34 1    
    37   16   35 1    
    38   20   36 1    
    39   20   37 1    
    40   20   38 1    
    41   21   39 1    
    42   21   40 1    
    43   21   41 1    
    44   22   42 1    
    45   22   43 1    
    46   22   44 1    
    47   24   45 1    
    48   25   46 1    
    49   25   47 1    
    50   26   48 1    
    51   46   49 1    
    52   46   50 1    
    53   46   51 1    
    54   50   52 1    
    55   50   53 1    
    56   50   54 1    
    57   53   55 1    
    58   53   56 1    
    59   53   57 1    
@<TRIPOS>SUBSTRUCTURE
     1 ****        2 TEMP              0 ****  ****    0 ROOT 
@<TRIPOS>NORMAL
@<TRIPOS>FF_PBC
FORCE_FIELD_SETUP_FEATURE Force Field Setup information
v1.0  0 0.000000 0.000000 0.000000 0.000000 0.000000 0.000000 NONE 0 0 0 0 1 0 0 0 0 0 0 0 0
