#	Name:			PISM00360
#	Creating user name:	malab
#	Creation time:		Wed Apr 10 00:29:15 2019

#	Modifying user name:	malab
#	Modification time:	Wed Apr 10 00:33:19 2019

@<TRIPOS>MOLECULE
PISM00360
   41    42     1     1     0
SMALL
USER_CHARGES


@<TRIPOS>ATOM
      1 C1         -6.6251    3.8611   -0.0769 C.2       1 <1>         0.0000 
      2 C2         -7.2354    4.3138   -1.1896 C.2       1 <1>         0.0000 
      3 N3         -8.5352    4.6118   -0.6756 N.2       1 <1>         0.0000 
      4 C4         -8.5919    4.3337    0.5435 C.2       1 <1>         0.0000 
      5 N5         -7.4526    3.8460    0.9691 N.pl3     1 <1>         0.0000 
      6 C6         -7.2137    3.4314    2.2125 C.2       1 <1>         0.0000 
      7 C7         -7.9857    3.9563    3.1894 C.2       1 <1>         0.0000 
      8 C8         -7.8907    3.8579    4.6932 C.ar      1 <1>         0.0000 
      9 C9         -6.0825    2.3974    2.4373 C.3       1 <1>         0.0000 
     10 C10        -5.1868    3.5393   -0.2071 C.2       1 <1>         0.0000 
     11 O11        -4.7737    2.9915   -1.2155 O.2       1 <1>         0.0000 
     12 C12        -6.0070    1.2179    3.5099 C.3       1 <1>         0.0000 
     13 C13        -4.9464    1.5189    4.6215 C.3       1 <1>         0.0000 
     14 C14        -7.3824    0.8771    4.1608 C.3       1 <1>         0.0000 
     15 C15        -5.4690   -0.1190    2.8749 C.3       1 <1>         0.0000 
     16 O16        -6.0582    1.6797    1.1878 O.3       1 <1>         0.0000 
     17 C17        -8.9771    3.3896    5.4397 C.ar      1 <1>         0.0000 
     18 C18        -8.8876    3.3140    6.8326 C.ar      1 <1>         0.0000 
     19 C19        -7.7151    3.7120    7.4797 C.ar      1 <1>         0.0000 
     20 C20        -6.6390    4.2050    6.7370 C.ar      1 <1>         0.0000 
     21 C21        -6.7373    4.3011    5.3459 C.ar      1 <1>         0.0000 
     22 Cl22       -7.5924    3.5969    9.2229 Cl        1 <1>         0.0000 
     23 H1         -6.8533    4.4471   -2.2009 H         1 <1>         0.0000 
     24 H2         -9.5563    4.5038    1.0177 H         1 <1>         0.0000 
     25 H3         -8.8138    4.6392    3.0336 H         1 <1>         0.0000 
     26 H4         -5.1458    2.9620    2.5308 H         1 <1>         0.0000 
     27 H5         -4.4588    3.7984    0.5565 H         1 <1>         0.0000 
     28 H6         -4.9460    0.7314    5.3916 H         1 <1>         0.0000 
     29 H7         -5.1293    2.4630    5.1341 H         1 <1>         0.0000 
     30 H8         -3.9338    1.5744    4.1915 H         1 <1>         0.0000 
     31 H9         -8.2158    1.1574    3.4999 H         1 <1>         0.0000 
     32 H10        -7.4862    1.3836    5.1265 H         1 <1>         0.0000 
     33 H11        -7.4843   -0.1958    4.3847 H         1 <1>         0.0000 
     34 H12        -5.2457   -0.8739    3.6460 H         1 <1>         0.0000 
     35 H13        -4.5377    0.0569    2.3144 H         1 <1>         0.0000 
     36 H14        -6.1989   -0.5888    2.1988 H         1 <1>         0.0000 
     37 H15        -6.8830    1.2539    0.9730 H         1 <1>         0.0000 
     38 H16        -9.8896    3.0839    4.9374 H         1 <1>         0.0000 
     39 H17        -9.7289    2.9464    7.4107 H         1 <1>         0.0000 
     40 H18        -5.7284    4.5154    7.2388 H         1 <1>         0.0000 
     41 H19        -5.9217    4.7272    4.7698 H         1 <1>         0.0000 
@<TRIPOS>BOND
     1    2    1 2    
     2    2    3 1    
     3    3    4 2    
     4    4    5 1    
     5    1    5 1    
     6    5    6 1    
     7    6    7 2    
     8    7    8 1    
     9    6    9 1    
    10    1   10 1    
    11   10   11 2    
    12    9   12 1    
    13   12   13 1    
    14   12   14 1    
    15   12   15 1    
    16    9   16 1    
    17    8   17 ar   
    18   17   18 ar   
    19   18   19 ar   
    20   19   20 ar   
    21   20   21 ar   
    22    8   21 ar   
    23   19   22 1    
    24    2   23 1    
    25    4   24 1    
    26    7   25 1    
    27    9   26 1    
    28   10   27 1    
    29   13   28 1    
    30   13   29 1    
    31   13   30 1    
    32   14   31 1    
    33   14   32 1    
    34   14   33 1    
    35   15   34 1    
    36   15   35 1    
    37   15   36 1    
    38   16   37 1    
    39   17   38 1    
    40   18   39 1    
    41   20   40 1    
    42   21   41 1    
@<TRIPOS>SUBSTRUCTURE
     1 ****        2 TEMP              0 ****  ****    0 ROOT 
@<TRIPOS>NORMAL
@<TRIPOS>FF_PBC
FORCE_FIELD_SETUP_FEATURE Force Field Setup information
v1.0  0 0.000000 0.000000 0.000000 0.000000 0.000000 0.000000 NONE 0 0 0 0 0 0 0 0 0 0 0 0 0
