#	Name:			PISM00837.1
#	Creating user name:	baoopengkun
#	Creation time:		Thu Dec 13 14:40:19 2018

#	Modifying user name:	baoopengkun
#	Modification time:	Thu Dec 13 14:42:10 2018

@<TRIPOS>MOLECULE
PISM00837.1
   24    25     1     1     0
SMALL
GAST_HUCK


@<TRIPOS>ATOM
      1 C1         -9.0323   16.1557   -5.7159 C.ar      1 <1>        -0.0320 
      2 C2        -10.3447   15.8598   -5.3362 C.ar      1 <1>        -0.0567 
      3 C3        -11.2607   16.8945   -5.1266 C.ar      1 <1>         0.0285 
      4 C4        -10.8617   18.2245   -5.2869 C.ar      1 <1>        -0.0567 
      5 C5         -9.5479   18.5201   -5.6626 C.ar      1 <1>        -0.0320 
      6 C6         -8.6375   17.4845   -5.8923 C.ar      1 <1>         0.0984 
      7 Cl7       -12.9086   16.5245   -4.6622 Cl        1 <1>        -0.0810 
      8 O8         -7.3350   17.7709   -6.2970 O.3       1 <1>        -0.2706 
      9 C9         -7.2154   18.1429   -7.6778 C.3       1 <1>         0.2358 
     10 C10        -7.6401   17.0014   -8.5724 C.2       1 <1>        -0.0019 
     11 C11        -6.6051   16.5510   -9.2783 C.2       1 <1>         0.0292 
     12 C12        -5.5058   17.4132   -8.8598 C.2       1 <1>         0.2494 
     13 O13        -5.8174   18.3431   -7.9654 O.3       1 <1>        -0.2313 
     14 C14        -6.5788   15.4301  -10.2813 C.3       1 <1>        -0.0323 
     15 O15        -4.3764   17.2974   -9.3035 O.2       1 <1>        -0.3691 
     16 H1         -8.3154   15.3571   -5.8765 H         1 <1>         0.0543 
     17 H2        -10.6544   14.8281   -5.2037 H         1 <1>         0.0595 
     18 H3        -11.5736   19.0262   -5.1184 H         1 <1>         0.0595 
     19 H4         -9.2328   19.5523   -5.7745 H         1 <1>         0.0543 
     20 H5         -7.7713   19.0662   -7.9091 H         1 <1>         0.1199 
     21 H6         -8.6509   16.5992   -8.6290 H         1 <1>         0.0705 
     22 H7         -5.6790   15.5042  -10.9104 H         1 <1>         0.0347 
     23 H8         -7.4688   15.4771  -10.9265 H         1 <1>         0.0347 
     24 H9         -6.5671   14.4657   -9.7521 H         1 <1>         0.0347 
@<TRIPOS>BOND
     1    2    1 ar   
     2    2    3 ar   
     3    3    4 ar   
     4    4    5 ar   
     5    5    6 ar   
     6    1    6 ar   
     7    3    7 1    
     8    6    8 1    
     9    8    9 1    
    10    9   10 1    
    11   10   11 2    
    12   11   12 1    
    13   12   13 1    
    14    9   13 1    
    15   11   14 1    
    16   12   15 2    
    17    1   16 1    
    18    2   17 1    
    19    4   18 1    
    20    5   19 1    
    21    9   20 1    
    22   10   21 1    
    23   14   22 1    
    24   14   23 1    
    25   14   24 1    
@<TRIPOS>SUBSTRUCTURE
     1 ****        2 TEMP              0 ****  ****    0 ROOT 
@<TRIPOS>NORMAL
@<TRIPOS>FF_PBC
FORCE_FIELD_SETUP_FEATURE Force Field Setup information
v1.0  0 0.000000 0.000000 0.000000 0.000000 0.000000 0.000000 NONE 0 0 0 0 1 0 0 0 0 0 0 0 0
