#	Name:			PISM00187
#	Creating user name:	14062
#	Creation time:		Mon Apr 01 21:05:49 2019

#	Modifying user name:	14062
#	Modification time:	Mon Apr 01 21:06:12 2019

@<TRIPOS>MOLECULE
PISM00187
   37    38     1     2     0
SMALL
GAST_HUCK


@<TRIPOS>ATOM
      1 C1         -1.1016   -2.9297    0.4945 C.ar      1 <1>        -0.0768 
      2 C2          0.1661   -3.5169    0.6352 C.ar      1 <1>        -0.0748 
      3 C3          1.3342   -2.7982    0.3464 C.ar      1 <1>        -0.0467 
      4 C4          1.1878   -1.4805   -0.0852 C.ar      1 <1>         0.0450 
      5 C5         -0.0641   -0.9200   -0.2348 C.ar      1 <1>        -0.0185 
      6 C6         -1.2416   -1.6058    0.0578 C.ar      1 <1>        -0.0716 
      7 C7          0.2859    0.4510   -0.7406 C.2       1 <1>        -0.0224 
      8 C8          1.6278    0.5104   -0.7989 C.2       1 <1>         0.0040 
      9 N9          2.2516   -0.6128   -0.4064 N.3       1 <1>        -0.2350 
     10 C10        -0.7192    1.5147   -1.1087 C.3       1 <1>         0.0784 
     11 C11        -0.0235    2.8608   -1.1526 C.2       1 <1>         0.2403 
     12 O12         0.2136    3.4247   -2.2055 O.2       1 <1>        -0.3685 
     13 O13         0.3602    3.4349   -0.0067 O.3       1 <1>        -0.2916 
     14 C14        -1.3949    1.1245   -2.4541 C.3       1 <1>        -0.0271 
     15 H1         -1.9889   -3.5098    0.7264 H         1 <1>         0.0524 
     16 H2          0.2440   -4.5457    0.9734 H         1 <1>         0.0543 
     17 H3          2.3168   -3.2450    0.4522 H         1 <1>         0.0548 
     18 H4         -2.2131   -1.1359   -0.0482 H         1 <1>         0.0551 
     19 H5          2.1795    1.3872   -1.1417 H         1 <1>         0.0760 
     20 H6          2.8403   -0.4181    0.4801 H         1 <1>         0.1886 
     21 H7         -1.4913    1.5412   -0.3240 H         1 <1>         0.0644 
     22 H8          0.1684    2.9330    0.7756 H         1 <1>         0.2540 
     23 H9         -1.7980    0.1024   -2.3645 H         1 <1>         0.0308 
     24 H10        -0.6376    1.1204   -3.2555 H         1 <1>         0.0308 
     25 H11        -2.1521    3.0912   -3.0003 H         1 <1>         0.0268 
     26 C26        -2.5588    2.0839   -2.8325 C.3       1 <1>        -0.0495 
     27 H12        -3.2775    2.1383   -1.9988 H         1 <1>         0.0268 
     28 H13        -3.7214    0.5922   -3.8923 H         1 <1>         0.0265 
     29 C29        -3.3035    1.5910   -4.1048 C.3       1 <1>        -0.0531 
     30 H14        -2.5919    1.4881   -4.9401 H         1 <1>         0.0265 
     31 C31        -4.4710    2.5254   -4.5343 C.3       1 <1>        -0.0559 
     32 H15        -5.1291    2.7231   -3.6720 H         1 <1>         0.0263 
     33 C33        -3.9846    3.8683   -5.1431 C.3       1 <1>        -0.0653 
     34 H16        -5.0694    2.0063   -5.3030 H         1 <1>         0.0263 
     35 H17        -3.4526    4.4804   -4.4007 H         1 <1>         0.0230 
     36 H18        -4.8481    4.4489   -5.5047 H         1 <1>         0.0230 
     37 H19        -3.3125    3.6811   -5.9952 H         1 <1>         0.0230 
@<TRIPOS>BOND
     1    2    1 ar   
     2    2    3 ar   
     3    3    4 ar   
     4    4    5 ar   
     5    5    6 ar   
     6    1    6 ar   
     7    5    7 1    
     8    7    8 2    
     9    8    9 1    
    10    4    9 1    
    11    7   10 1    
    12   10   11 1    
    13   11   12 2    
    14   11   13 1    
    15   10   14 1    
    16    1   15 1    
    17    2   16 1    
    18    3   17 1    
    19    6   18 1    
    20    8   19 1    
    21    9   20 1    
    22   10   21 1    
    23   13   22 1    
    24   14   23 1    
    25   14   24 1    
    26   26   25 1    
    27   14   26 1    
    28   26   27 1    
    29   29   28 1    
    30   26   29 1    
    31   29   30 1    
    32   29   31 1    
    33   31   32 1    
    34   31   33 1    
    35   31   34 1    
    36   33   35 1    
    37   33   36 1    
    38   33   37 1    
@<TRIPOS>SUBSTRUCTURE
     1 ****        2 TEMP              0 ****  ****    0 ROOT 
@<TRIPOS>NORMAL
@<TRIPOS>FF_PBC
FORCE_FIELD_SETUP_FEATURE Force Field Setup information
v1.0  0 0.000000 0.000000 0.000000 0.000000 0.000000 0.000000 NONE 0 0 0 0 1 0 0 0 0 0 0 0 0
@<TRIPOS>RENDERING_ATTRS
ANTIALIASED_LINES 
1,2,3,4,5,6,7,8,9,10,11,12,13,14,15,16,17,18,19,20,21,22,23,24,25
