#	Name:			PISM00756.1
#	Creating user name:	baoopengkun
#	Creation time:		Sun Dec 02 11:30:57 2018

#	Modifying user name:	baoopengkun
#	Modification time:	Sun Dec 02 11:34:55 2018

@<TRIPOS>MOLECULE
PISM00756.1
   31    33     1     2     0
SMALL
GAST_HUCK


@<TRIPOS>ATOM
      1 C1          6.7117    3.3610    7.8286 C.ar      1 <1>        -0.0518 
      2 C2          7.9841    3.5449    8.3814 C.ar      1 <1>        -0.0636 
      3 C3          9.1188    3.5839    7.5592 C.ar      1 <1>        -0.0645 
      4 C4          9.0055    3.4406    6.1707 C.ar      1 <1>        -0.0543 
      5 C5          7.7368    3.2566    5.6175 C.ar      1 <1>        -0.0210 
      6 C6          6.6184    3.2191    6.4442 C.ar      1 <1>         0.0268 
      7 C7          5.4095    3.0104    5.5756 C.2       1 <1>         0.1267 
      8 C8          5.8874    2.9299    4.1919 C.2       1 <1>         0.0321 
      9 C9          7.3922    3.0798    4.1319 C.3       1 <1>         0.0095 
     10 O10         4.2490    2.9228    5.9411 O.2       1 <1>        -0.3977 
     11 C11         5.1076    2.7490    3.1219 C.2       1 <1>         0.0828 
     12 O12         5.6670    2.6927    1.9047 O.3       1 <1>        -0.2675 
     13 C13         4.7309    2.4644    0.8355 C.3       1 <1>         0.2398 
     14 O14         5.4800    2.4824   -0.3959 O.3       1 <1>        -0.2303 
     15 C15         5.3542    1.2637   -0.9057 C.2       1 <1>         0.2496 
     16 C16         4.5263    0.3439   -0.1348 C.2       1 <1>         0.0293 
     17 C17         4.1451    1.0720    0.9127 C.2       1 <1>        -0.0007 
     18 C18         4.1837   -1.0875   -0.4461 C.3       1 <1>        -0.0323 
     19 O19         5.8918    0.9439   -1.9518 O.2       1 <1>        -0.3691 
     20 H1          5.8220    3.3286    8.4487 H         1 <1>         0.0648 
     21 H2          8.0918    3.6580    9.4559 H         1 <1>         0.0569 
     22 H3         10.0989    3.7272    8.0042 H         1 <1>         0.0632 
     23 H4          9.8832    3.4712    5.5334 H         1 <1>         0.0570 
     24 H5          7.6866    3.9683    3.5530 H         1 <1>         0.0530 
     25 H6          7.8720    2.1779    3.7227 H         1 <1>         0.0530 
     26 H7          4.0345    2.6578    3.3066 H         1 <1>         0.1123 
     27 H8          3.9500    3.2424    0.7842 H         1 <1>         0.1213 
     28 H9          3.5027    0.7033    1.7113 H         1 <1>         0.0706 
     29 H10         4.7311   -1.4265   -1.3385 H         1 <1>         0.0347 
     30 H11         3.1035   -1.1765   -0.6347 H         1 <1>         0.0347 
     31 H12         4.4561   -1.7301    0.4045 H         1 <1>         0.0347 
@<TRIPOS>BOND
     1    2    1 ar   
     2    2    3 ar   
     3    3    4 ar   
     4    4    5 ar   
     5    5    6 ar   
     6    1    6 ar   
     7    6    7 1    
     8    7    8 1    
     9    8    9 1    
    10    5    9 1    
    11    7   10 2    
    12    8   11 2    
    13   11   12 1    
    14   12   13 1    
    15   13   14 1    
    16   14   15 1    
    17   15   16 1    
    18   16   17 2    
    19   13   17 1    
    20   16   18 1    
    21   15   19 2    
    22    1   20 1    
    23    2   21 1    
    24    3   22 1    
    25    4   23 1    
    26    9   24 1    
    27    9   25 1    
    28   11   26 1    
    29   13   27 1    
    30   17   28 1    
    31   18   29 1    
    32   18   30 1    
    33   18   31 1    
@<TRIPOS>SUBSTRUCTURE
     1 ****        2 TEMP              0 ****  ****    0 ROOT 
@<TRIPOS>NORMAL
@<TRIPOS>FF_PBC
FORCE_FIELD_SETUP_FEATURE Force Field Setup information
v1.0  0 0.000000 0.000000 0.000000 0.000000 0.000000 0.000000 NONE 0 0 0 0 1 0 0 0 0 0 0 0 0
@<TRIPOS>RENDERING_ATTRS
ANTIALIASED_LINES 
*
