#	Name:			PISM00603
#	Creating user name:	baoopengkun
#	Creation time:		Mon Dec 10 09:47:36 2018

#	Modifying user name:	baoopengkun
#	Modification time:	Mon Dec 10 09:47:54 2018

@<TRIPOS>MOLECULE
PISM00603
   44    47     1     2     0
SMALL
GAST_HUCK


@<TRIPOS>ATOM
      1 C1          3.5593    9.5034   -6.6210 C.ar      1 <1>        -0.0348 
      2 C2          2.6566    9.9109   -5.6343 C.ar      1 <1>        -0.0180 
      3 C3          2.2355    9.0073   -4.6548 C.ar      1 <1>         0.0714 
      4 C4          2.7254    7.6986   -4.6565 C.ar      1 <1>        -0.0180 
      5 C5          3.6272    7.2917   -5.6439 C.ar      1 <1>        -0.0348 
      6 C6          4.0346    8.1879   -6.6380 C.ar      1 <1>         0.0068 
      7 C7          5.0010    7.7216   -7.7360 C.3       1 <1>         0.1921 
      8 C8          6.4570    7.8740   -7.2297 C.3       1 <1>         0.1073 
      9 N9          7.5005    7.4237   -8.1417 N.pl3     1 <1>        -0.1814 
     10 N10         8.8368    7.4011   -7.8740 N.2       1 <1>        -0.1908 
     11 C11         9.5405    6.9529   -8.8461 C.2       1 <1>         0.0618 
     12 N12         8.5147    6.6706   -9.8112 N.2       1 <1>        -0.2870 
     13 C13         7.3836    6.9585   -9.3489 C.2       1 <1>         0.1270 
     14 O14         4.7912    8.4078   -8.9766 O.3       1 <1>        -0.3814 
     15 C15         3.5842    7.8825   -9.5373 C.3       1 <1>         0.0672 
     16 C16         3.6260    6.4039   -9.0725 C.3       1 <1>         0.1004 
     17 O17         4.7059    6.3739   -8.1233 O.3       1 <1>        -0.3757 
     18 C18         2.2801    5.9195   -8.4737 C.3       1 <1>         0.0977 
     19 O19         2.4138    4.5612   -8.0213 O.3       1 <1>        -0.3154 
     20 C20         1.2540    4.0464   -7.4441 C.ar      1 <1>         0.0912 
     21 C21         0.9924    4.2637   -6.0887 C.ar      1 <1>        -0.0331 
     22 C22        -0.1803    3.7650   -5.5137 C.ar      1 <1>        -0.0706 
     23 C23        -1.0858    3.0396   -6.2939 C.ar      1 <1>        -0.0729 
     24 C24        -0.8181    2.8112   -7.6472 C.ar      1 <1>        -0.0706 
     25 C25         0.3532    3.3143   -8.2216 C.ar      1 <1>        -0.0331 
     26 Cl26        1.0955    9.5148   -3.4255 Cl        1 <1>        -0.0420 
     27 H1          3.8914   10.2111   -7.3745 H         1 <1>         0.0849 
     28 H2          2.2815   10.9293   -5.6266 H         1 <1>         0.0703 
     29 H3          2.4041    7.0004   -3.8902 H         1 <1>         0.0703 
     30 H4          4.0104    6.2754   -5.6401 H         1 <1>         0.0849 
     31 H5          6.5706    7.2988   -6.2989 H         1 <1>         0.0595 
     32 H6          6.6429    8.9367   -7.0149 H         1 <1>         0.0595 
     33 H7         10.6191    6.8221   -8.9193 H         1 <1>         0.0863 
     34 H8          6.4655    6.8203   -9.9159 H         1 <1>         0.1361 
     35 H9          3.5735    8.0021  -10.6318 H         1 <1>         0.0576 
     36 H10         2.7250    8.4235   -9.1109 H         1 <1>         0.0576 
     37 H11         3.9125    5.7319   -9.8980 H         1 <1>         0.0635 
     38 H12         1.5008    5.9759   -9.2511 H         1 <1>         0.0640 
     39 H13         1.9861    6.5668   -7.6342 H         1 <1>         0.0640 
     40 H14         1.7027    4.8192   -5.4867 H         1 <1>         0.0542 
     41 H15        -0.3871    3.9405   -4.4623 H         1 <1>         0.0589 
     42 H16        -1.9973    2.6526   -5.8484 H         1 <1>         0.0523 
     43 H17        -1.5190    2.2436   -8.2517 H         1 <1>         0.0589 
     44 H18         0.5680    3.1400   -9.2706 H         1 <1>         0.0542 
@<TRIPOS>BOND
     1    2    1 ar   
     2    2    3 ar   
     3    3    4 ar   
     4    4    5 ar   
     5    5    6 ar   
     6    1    6 ar   
     7    6    7 1    
     8    7    8 1    
     9    8    9 1    
    10    9   10 1    
    11   10   11 2    
    12   11   12 1    
    13   12   13 2    
    14    9   13 1    
    15    7   14 1    
    16   14   15 1    
    17   15   16 1    
    18   16   17 1    
    19    7   17 1    
    20   16   18 1    
    21   18   19 1    
    22   19   20 1    
    23   20   21 ar   
    24   21   22 ar   
    25   22   23 ar   
    26   23   24 ar   
    27   24   25 ar   
    28   20   25 ar   
    29    3   26 1    
    30    1   27 1    
    31    2   28 1    
    32    4   29 1    
    33    5   30 1    
    34    8   31 1    
    35    8   32 1    
    36   11   33 1    
    37   13   34 1    
    38   15   35 1    
    39   15   36 1    
    40   16   37 1    
    41   18   38 1    
    42   18   39 1    
    43   21   40 1    
    44   22   41 1    
    45   23   42 1    
    46   24   43 1    
    47   25   44 1    
@<TRIPOS>SUBSTRUCTURE
     1 ****        2 TEMP              0 ****  ****    0 ROOT 
@<TRIPOS>NORMAL
@<TRIPOS>FF_PBC
FORCE_FIELD_SETUP_FEATURE Force Field Setup information
v1.0  0 0.000000 0.000000 0.000000 0.000000 0.000000 0.000000 NONE 0 0 0 0 1 0 0 0 0 0 0 0 0
@<TRIPOS>RENDERING_ATTRS
ANTIALIASED_LINES 
*
