#	Name:			PISM00558
#	Creating user name:	baoopengkun
#	Creation time:		Sat Dec 15 15:59:30 2018

#	Modifying user name:	baoopengkun
#	Modification time:	Sat Dec 15 16:03:46 2018

@<TRIPOS>MOLECULE
PISM00558
   34    35     1     1     0
SMALL
NO_CHARGES


@<TRIPOS>ATOM
      1 C1          4.8680   -1.3073   14.4934 C.3       1 <1>         0.0000 
      2 C2          6.1771   -1.0170   15.2677 C.3       1 <1>         0.0000 
      3 N3          5.6776   -0.0797   16.2588 N.am      1 <1>         0.0000 
      4 C4          4.3479   -0.1480   16.4602 C.2       1 <1>         0.0000 
      5 O5          3.6890    0.5289   17.2330 O.2       1 <1>         0.0000 
      6 C6          3.7640   -1.2107   15.5749 C.3       1 <1>         0.0000 
      7 C7          6.4992    0.8576   17.0133 C.3       1 <1>         0.0000 
      8 C8          6.0410    2.2658   16.7238 C.2       1 <1>         0.0000 
      9 N9          6.0248    2.6767   15.4834 N.pl3     1 <1>         0.0000 
     10 N10         5.6917    2.9766   17.7239 N.2       1 <1>         0.0000 
     11 O11         5.3356    4.2566   17.2592 O.3       1 <1>         0.0000 
     12 C12         6.3253    5.1397   17.4451 C.2       1 <1>         0.0000 
     13 O13         6.1984    6.2490   16.9532 O.2       1 <1>         0.0000 
     14 C14         7.5940    4.8307   18.2137 C.ar      1 <1>         0.0000 
     15 C15         8.8165    5.3025   17.7232 C.ar      1 <1>         0.0000 
     16 C16        10.0097    4.9989   18.3849 C.ar      1 <1>         0.0000 
     17 C17         9.9868    4.2211   19.5454 C.ar      1 <1>         0.0000 
     18 C18         8.7666    3.7689   20.0541 C.ar      1 <1>         0.0000 
     19 C19         7.5726    4.0937   19.4038 C.ar      1 <1>         0.0000 
     20 Cl20       11.4834    3.8158   20.3613 Cl        1 <1>         0.0000 
     21 H1          4.8799   -2.2775   13.9709 H         1 <1>         0.0000 
     22 H2          4.7101   -0.5050   13.7522 H         1 <1>         0.0000 
     23 H3          6.9647   -0.5935   14.6241 H         1 <1>         0.0000 
     24 H4          6.5518   -1.9203   15.7749 H         1 <1>         0.0000 
     25 H5          2.7808   -0.9389   15.1588 H         1 <1>         0.0000 
     26 H6          3.6830   -2.1491   16.1460 H         1 <1>         0.0000 
     27 H7          7.5583    0.7660   16.7271 H         1 <1>         0.0000 
     28 H8          6.4181    0.6284   18.0878 H         1 <1>         0.0000 
     29 H9          5.7085    3.6310   15.2579 H         1 <1>         0.0000 
     30 H10         6.3224    2.0528   14.7184 H         1 <1>         0.0000 
     31 H11         8.8442    5.9047   16.8206 H         1 <1>         0.0000 
     32 H12        10.9548    5.3653   17.9973 H         1 <1>         0.0000 
     33 H13         8.7469    3.1675   20.9572 H         1 <1>         0.0000 
     34 H14         6.6308    3.7766   19.8390 H         1 <1>         0.0000 
@<TRIPOS>BOND
     1    2    1 1    
     2    2    3 1    
     3    3    4 am   
     4    4    5 2    
     5    4    6 1    
     6    1    6 1    
     7    3    7 1    
     8    7    8 1    
     9    8    9 1    
    10    8   10 2    
    11   10   11 1    
    12   11   12 1    
    13   12   13 2    
    14   12   14 1    
    15   14   15 ar   
    16   15   16 ar   
    17   16   17 ar   
    18   17   18 ar   
    19   18   19 ar   
    20   14   19 ar   
    21   17   20 1    
    22    1   21 1    
    23    1   22 1    
    24    2   23 1    
    25    2   24 1    
    26    6   25 1    
    27    6   26 1    
    28    7   27 1    
    29    7   28 1    
    30    9   29 1    
    31    9   30 1    
    32   15   31 1    
    33   16   32 1    
    34   18   33 1    
    35   19   34 1    
@<TRIPOS>SUBSTRUCTURE
     1 ****        2 TEMP              0 ****  ****    0 ROOT 
@<TRIPOS>NORMAL
@<TRIPOS>FF_PBC
FORCE_FIELD_SETUP_FEATURE Force Field Setup information
v1.0  0 0.000000 0.000000 0.000000 0.000000 0.000000 0.000000 NONE 0 0 0 0 0 0 0 0 0 0 0 0 0
