#	Name:			PISM00016
#	Creating user name:	baoopengkun
#	Creation time:		Sat Nov 17 16:16:11 2018

#	Modifying user name:	baoopengkun
#	Modification time:	Sat Nov 17 16:20:49 2018

@<TRIPOS>MOLECULE
PISM00016
   47    47     1     2     0
SMALL
GAST_HUCK


@<TRIPOS>ATOM
      1 C1        -10.6437    1.1603    0.9457 C.ar      1 <1>         0.0132 
      2 C2        -10.4912    2.2239    0.0469 C.ar      1 <1>        -0.0166 
      3 C3         -9.2224    2.5920   -0.4116 C.ar      1 <1>         0.0019 
      4 C4         -8.1086    1.8418   -0.0242 C.ar      1 <1>        -0.0166 
      5 C5         -8.2421    0.7739    0.8722 C.ar      1 <1>         0.0132 
      6 C6         -9.4711    0.6716    1.5386 C.ar      1 <1>         0.1823 
      7 C7        -12.0300    0.5364    1.2705 C.3       1 <1>        -0.0462 
      8 C8        -11.9051   -1.0186    1.2899 C.3       1 <1>        -0.0894 
      9 C9        -13.1019    0.8902    0.1909 C.3       1 <1>        -0.0894 
     10 C10       -12.5447    1.0480    2.6454 C.3       1 <1>        -0.0894 
     11 C11        -9.0282    3.7998   -1.3387 C.3       1 <1>        -0.0217 
     12 O12        -9.5223    0.1095    2.8089 O.3       1 <1>        -0.1482 
     13 C13        -9.3464    1.0040    3.7858 C.2       1 <1>         0.3653 
     14 O14        -9.1613    2.1897    3.5623 O.2       1 <1>        -0.3657 
     15 C15        -7.1036   -0.2556    1.1166 C.3       1 <1>        -0.0462 
     16 C16        -7.7074   -1.6935    1.1601 C.3       1 <1>        -0.0894 
     17 C17        -6.0455   -0.2433   -0.0321 C.3       1 <1>        -0.0894 
     18 C18        -6.3698    0.0555    2.4514 C.3       1 <1>        -0.0894 
     19 N19        -9.3894    0.4956    5.0343 N.am      1 <1>        -0.2586 
     20 C20        -9.6129   -0.9318    5.2587 C.3       1 <1>         0.0221 
     21 H1        -11.3467    2.7834   -0.3051 H         1 <1>         0.0976 
     22 H2         -7.1457    2.1163   -0.4334 H         1 <1>         0.0976 
     23 H3        -12.8869   -1.4904    1.4484 H         1 <1>         0.0119 
     24 H4        -11.2473   -1.3828    2.0899 H         1 <1>         0.0119 
     25 H5        -11.5024   -1.3713    0.3276 H         1 <1>         0.0119 
     26 H6        -13.3979    1.9487    0.2384 H         1 <1>         0.0119 
     27 H7        -14.0222    0.3049    0.3409 H         1 <1>         0.0119 
     28 H8        -12.7205    0.6657   -0.8173 H         1 <1>         0.0119 
     29 H9        -11.9224    0.6890    3.4746 H         1 <1>         0.0119 
     30 H10       -13.5718    0.6961    2.8273 H         1 <1>         0.0119 
     31 H11       -12.5442    2.1487    2.6612 H         1 <1>         0.0119 
     32 H12        -9.9821    4.2758   -1.6108 H         1 <1>         0.0391 
     33 H13        -8.5253    3.4744   -2.2619 H         1 <1>         0.0391 
     34 H14        -8.3978    4.5448   -0.8302 H         1 <1>         0.0391 
     35 H15        -6.9145   -2.4503    1.2614 H         1 <1>         0.0119 
     36 H16        -8.2601   -1.8932    0.2290 H         1 <1>         0.0119 
     37 H17        -8.3940   -1.8409    2.0039 H         1 <1>         0.0119 
     38 H18        -5.4318    0.6694   -0.0143 H         1 <1>         0.0119 
     39 H19        -6.5411   -0.3272   -1.0118 H         1 <1>         0.0119 
     40 H20        -5.3466   -1.0883    0.0654 H         1 <1>         0.0119 
     41 H21        -7.0209   -0.0979    3.3211 H         1 <1>         0.0119 
     42 H22        -6.0235    1.1004    2.4557 H         1 <1>         0.0119 
     43 H23        -5.4961   -0.6032    2.5727 H         1 <1>         0.0119 
     44 H24        -9.2646    1.1150    5.8113 H         1 <1>         0.1871 
     45 H25        -9.6171   -1.1682    6.3349 H         1 <1>         0.0484 
     46 H26        -8.8159   -1.5231    4.7810 H         1 <1>         0.0484 
     47 H27       -10.5831   -1.2380    4.8368 H         1 <1>         0.0484 
@<TRIPOS>BOND
     1    2    1 ar   
     2    2    3 ar   
     3    3    4 ar   
     4    4    5 ar   
     5    5    6 ar   
     6    1    6 ar   
     7    1    7 1    
     8    7    8 1    
     9    7    9 1    
    10    7   10 1    
    11    3   11 1    
    12    6   12 1    
    13   12   13 1    
    14   13   14 2    
    15    5   15 1    
    16   15   16 1    
    17   15   17 1    
    18   15   18 1    
    19   13   19 am   
    20   19   20 1    
    21    2   21 1    
    22    4   22 1    
    23    8   23 1    
    24    8   24 1    
    25    8   25 1    
    26    9   26 1    
    27    9   27 1    
    28    9   28 1    
    29   10   29 1    
    30   10   30 1    
    31   10   31 1    
    32   11   32 1    
    33   11   33 1    
    34   11   34 1    
    35   16   35 1    
    36   16   36 1    
    37   16   37 1    
    38   17   38 1    
    39   17   39 1    
    40   17   40 1    
    41   18   41 1    
    42   18   42 1    
    43   18   43 1    
    44   19   44 1    
    45   20   45 1    
    46   20   46 1    
    47   20   47 1    
@<TRIPOS>SUBSTRUCTURE
     1 ****        2 TEMP              0 ****  ****    0 ROOT 
@<TRIPOS>NORMAL
@<TRIPOS>FF_PBC
FORCE_FIELD_SETUP_FEATURE Force Field Setup information
v1.0  0 0.000000 0.000000 0.000000 0.000000 0.000000 0.000000 NONE 0 0 0 0 1 0 0 0 0 0 0 0 0
@<TRIPOS>RENDERING_ATTRS
ANTIALIASED_LINES 
*
