#	Name:			PISM00266
#	Creating user name:	14062
#	Creation time:		Sat Apr 06 00:50:36 2019

#	Modifying user name:	14062
#	Modification time:	Sat Apr 06 00:53:39 2019

@<TRIPOS>MOLECULE
PISM00266
   46    49     1     1     0
SMALL
GAST_HUCK


@<TRIPOS>ATOM
      1 C1          4.8245   -2.7130    5.2004 C.3       1 NO2        -0.0174 
      2 C2          4.2605   -3.8560    6.0853 C.3       1 NO2        -0.0452 
      3 C3          4.6168   -5.2273    5.4521 C.3       1 NO2        -0.0401 
      4 C4          3.9772   -5.3270    4.0436 C.3       1 NO2        -0.0452 
      5 C5          4.5048   -4.1615    3.1601 C.3       1 NO2        -0.0174 
      6 C6          4.1829   -2.7717    3.7864 C.3       1 NO2         0.0466 
      7 N7          2.7527   -2.4573    3.8436 N.am      1 NO2        -0.2849 
      8 C8          2.3439   -1.1850    4.0588 C.2       1 NO2         0.1924 
      9 O9          3.1468   -0.2750    4.1833 O.2       1 NO2        -0.3904 
     10 C10         0.9022   -0.8609    4.1462 C.2       1 NO2         0.0111 
     11 C11         0.4436    0.3883    4.3116 C.2       1 NO2        -0.0412 
     12 C12        -1.0241    0.7626    4.3933 C.ar      1 NO2        -0.0266 
     13 C13        -2.0351   -0.0254    3.8312 C.ar      1 NO2        -0.0631 
     14 C14        -3.3743    0.3428    3.9786 C.ar      1 NO2        -0.0691 
     15 C15        -3.7111    1.5214    4.6488 C.ar      1 NO2        -0.0338 
     16 C16        -2.7141    2.3496    5.1827 C.ar      1 NO2         0.1341 
     17 C17        -1.3764    1.9482    5.0504 C.ar      1 NO2        -0.0263 
     18 N          -3.0376    3.5116    5.8135 N.pl3     1 NO2         0.1217 
     19 O          -2.1388    4.2087    6.2320 O.2       1 NO2        -0.1133 
     20 O          -4.2103    3.7963    5.9266 O.2       1 NO2        -0.1133 
     21 C21         6.1573   -5.3655    5.3284 C.3       1 NO2        -0.0473 
     22 C22         6.7002   -4.2252    4.4277 C.3       1 NO2        -0.0401 
     23 C23         6.0461   -4.3108    3.0217 C.3       1 NO2        -0.0452 
     24 C24         6.3655   -2.8579    5.0795 C.3       1 NO2        -0.0452 
     25 H1          4.5968   -1.7432    5.6746 H         1 NO2         0.0323 
     26 H2          3.1670   -3.7537    6.1782 H         1 NO2         0.0271 
     27 H3          4.6902   -3.7913    7.0984 H         1 NO2         0.0271 
     28 H4          4.2281   -6.0403    6.0910 H         1 NO2         0.0301 
     29 H5          2.8811   -5.3087    4.1339 H         1 NO2         0.0271 
     30 H6          4.2414   -6.2929    3.5827 H         1 NO2         0.0271 
     31 H7          4.0407   -4.2206    2.1605 H         1 NO2         0.0323 
     32 H8          4.6581   -2.0070    3.1471 H         1 NO2         0.0560 
     33 H9          2.0829   -3.1869    3.7267 H         1 NO2         0.1839 
     34 H10         0.2120   -1.6978    4.0776 H         1 NO2         0.0669 
     35 H11         1.1699    1.1970    4.4010 H         1 NO2         0.0743 
     36 H12        -1.8021   -0.9211    3.2676 H         1 NO2         0.0542 
     37 H13        -4.1570   -0.2885    3.5675 H         1 NO2         0.0593 
     38 H14        -4.7607    1.7802    4.7440 H         1 NO2         0.0546 
     39 H15        -0.5847    2.5619    5.4668 H         1 NO2         0.0542 
     40 H16         6.4152   -6.3443    4.8916 H         1 NO2         0.0271 
     41 H17         6.6213   -5.3132    6.3270 H         1 NO2         0.0271 
     42 H18         7.7958   -4.3261    4.3306 H         1 NO2         0.0301 
     43 H19         6.2927   -5.2778    2.5532 H         1 NO2         0.0271 
     44 H20         6.4504   -3.5176    2.3716 H         1 NO2         0.0271 
     45 H21         6.8294   -2.7921    6.0776 H         1 NO2         0.0271 
     46 H22         6.7771   -2.0384    4.4676 H         1 NO2         0.0271 
@<TRIPOS>BOND
     1    1    2 1    
     2    2    3 1    
     3    4    3 1    
     4    5    4 1    
     5    6    5 1    
     6    6    1 1    
     7    7    6 1    
     8    8    7 am   
     9    8    9 2    
    10   10    8 1    
    11   11   10 2    
    12   12   11 1    
    13   12   13 ar   
    14   14   13 ar   
    15   15   14 ar   
    16   16   15 ar   
    17   16   17 ar   
    18   17   12 ar   
    19   18   19 2    
    20   18   20 2    
    21   18   16 1    
    22    3   21 1    
    23   21   22 1    
    24   22   23 1    
    25    5   23 1    
    26    1   24 1    
    27   22   24 1    
    28    1   25 1    
    29    2   26 1    
    30    2   27 1    
    31    3   28 1    
    32    4   29 1    
    33    4   30 1    
    34    5   31 1    
    35    6   32 1    
    36    7   33 1    
    37   10   34 1    
    38   11   35 1    
    39   13   36 1    
    40   14   37 1    
    41   15   38 1    
    42   17   39 1    
    43   21   40 1    
    44   21   41 1    
    45   22   42 1    
    46   23   43 1    
    47   23   44 1    
    48   24   45 1    
    49   24   46 1    
@<TRIPOS>SUBSTRUCTURE
     1 NO2        18 PERM              0 ****  ****    0 ROOT 
@<TRIPOS>NORMAL
@<TRIPOS>FF_PBC
FORCE_FIELD_SETUP_FEATURE Force Field Setup information
v1.0  0 0.000000 0.000000 0.000000 0.000000 0.000000 0.000000 NONE 0 0 0 0 1 0 0 0 0 0 0 0 0
