#	Name:			PISM00340
#	Creating user name:	baoopengkun
#	Creation time:		Sun Mar 31 18:46:55 2019

#	Modifying user name:	baoopengkun
#	Modification time:	Sun Mar 31 18:50:47 2019

@<TRIPOS>MOLECULE
PISM00340
   61    61     1     1     0
SMALL
GAST_HUCK


@<TRIPOS>ATOM
      1 C1          2.3708   -0.9870  -11.8480 C.3       1 <1>        -0.0486 
      2 C2          1.6280   -2.1591  -11.1417 C.3       1 <1>         0.0225 
      3 C3          1.6400   -1.9488   -9.6547 C.2       1 <1>         0.1783 
      4 C4          1.6791   -0.5931   -9.0763 C.2       1 <1>         0.1080 
      5 C5          1.7345    0.5017   -9.8497 C.2       1 <1>        -0.0545 
      6 C6          1.7891    0.3868  -11.3601 C.3       1 <1>         0.0241 
      7 C7          3.8935   -1.1098  -11.5168 C.3       1 <1>        -0.0722 
      8 C8          2.1911   -1.1241  -13.3888 C.3       1 <1>        -0.0722 
      9 O9          1.6200   -2.9211   -8.9163 O.2       1 <1>        -0.3530 
     10 S10         1.6558   -0.4688   -7.2935 S.3       1 <1>        -0.0484 
     11 C11         1.7363    1.9118   -9.2936 C.3       1 <1>        -0.0414 
     12 C12         0.3505    0.5870  -11.7905 C.2       1 <1>        -0.0993 
     13 C13        -0.0841    1.6398  -12.4965 C.2       1 <1>        -0.0245 
     14 C14        -1.4989    1.7843  -12.8966 C.2       1 <1>         0.0167 
     15 C15        -2.1786    0.6036  -13.5531 C.3       1 <1>        -0.0145 
     16 C16        -2.1827    2.9228  -12.6981 C.2       1 <1>         0.0580 
     17 C17        -1.6652    4.1489  -12.0426 C.2       1 <1>         0.2688 
     18 O18        -0.5721    4.1581  -11.5054 O.2       1 <1>        -0.3498 
     19 O19        -2.3760    5.2808  -12.0069 O.3       1 <1>        -0.2928 
     20 O20         2.5563    1.4766  -11.9045 O.3       1 <1>        -0.4725 
     21 C21         3.4686   -0.4579   -7.1114 C.3       1 <1>         0.0189 
     22 C22         3.8158   -0.1563   -5.6314 C.3       1 <1>        -0.0402 
     23 C23         5.3494   -0.1958   -5.3888 C.3       1 <1>        -0.0520 
     24 C24         5.6956    0.1432   -3.9129 C.3       1 <1>        -0.0530 
     25 C25         7.2226    0.0355   -3.6483 C.3       1 <1>        -0.0533 
     26 C26         7.5684    0.3875   -2.1751 C.3       1 <1>        -0.0559 
     27 C27         9.0894    0.2541   -1.9044 C.3       1 <1>        -0.0653 
     28 H1          2.1225   -3.1149  -11.3742 H         1 <1>         0.0479 
     29 H2          0.5831   -2.2586  -11.4654 H         1 <1>         0.0479 
     30 H3          4.2619   -2.1255  -11.7259 H         1 <1>         0.0220 
     31 H4          4.0870   -0.8907  -10.4561 H         1 <1>         0.0220 
     32 H5          4.4988   -0.4262  -12.1296 H         1 <1>         0.0220 
     33 H6          2.6866   -0.2887  -13.9067 H         1 <1>         0.0220 
     34 H7          1.1278   -1.1191  -13.6710 H         1 <1>         0.0220 
     35 H8          2.6338   -2.0661  -13.7469 H         1 <1>         0.0220 
     36 H9          1.3442    1.9831   -8.2699 H         1 <1>         0.0386 
     37 H10         1.1095    2.5607   -9.9234 H         1 <1>         0.0386 
     38 H11         2.7619    2.3081   -9.2977 H         1 <1>         0.0386 
     39 H12        -0.3907   -0.1540  -11.4966 H         1 <1>         0.0493 
     40 H13         0.6030    2.4303  -12.7985 H         1 <1>         0.1042 
     41 H14        -2.7397    0.9212  -14.4453 H         1 <1>         0.0429 
     42 H15        -2.8739    0.1381  -12.8390 H         1 <1>         0.0429 
     43 H16        -1.4443   -0.1522  -13.8711 H         1 <1>         0.0429 
     44 H17        -3.2168    2.9483  -13.0388 H         1 <1>         0.0917 
     45 H18        -3.2189    5.2421  -12.4403 H         1 <1>         0.2516 
     46 H19         3.4429    1.5403  -11.5698 H         1 <1>         0.1785 
     47 H20         3.9021    0.3156   -7.7648 H         1 <1>         0.0422 
     48 H21         3.8576   -1.4431   -7.4142 H         1 <1>         0.0422 
     49 H22         3.3250   -0.9047   -4.9874 H         1 <1>         0.0276 
     50 H23         3.4219    0.8394   -5.3667 H         1 <1>         0.0276 
     51 H24         5.8451    0.5301   -6.0542 H         1 <1>         0.0266 
     52 H25         5.7278   -1.2023   -5.6331 H         1 <1>         0.0266 
     53 H26         5.1646   -0.5546   -3.2452 H         1 <1>         0.0265 
     54 H27         5.3553    1.1670   -3.6852 H         1 <1>         0.0265 
     55 H28         7.7603    0.7215   -4.3233 H         1 <1>         0.0265 
     56 H29         7.5579   -0.9930   -3.8627 H         1 <1>         0.0265 
     57 H30         7.0231   -0.2886   -1.4956 H         1 <1>         0.0263 
     58 H31         7.2524    1.4216   -1.9583 H         1 <1>         0.0263 
     59 H32         9.4209   -0.7800   -2.0862 H         1 <1>         0.0230 
     60 H33         9.3114    0.5141   -0.8574 H         1 <1>         0.0230 
     61 H34         9.6578    0.9296   -2.5623 H         1 <1>         0.0230 
@<TRIPOS>BOND
     1    2    1 1    
     2    2    3 1    
     3    3    4 1    
     4    4    5 2    
     5    5    6 1    
     6    1    6 1    
     7    1    7 1    
     8    1    8 1    
     9    3    9 2    
    10    4   10 1    
    11    5   11 1    
    12    6   12 1    
    13   12   13 2    
    14   13   14 1    
    15   14   15 1    
    16   14   16 2    
    17   16   17 1    
    18   17   18 2    
    19   17   19 1    
    20    6   20 1    
    21   10   21 1    
    22   21   22 1    
    23   22   23 1    
    24   23   24 1    
    25   24   25 1    
    26   25   26 1    
    27   26   27 1    
    28    2   28 1    
    29    2   29 1    
    30    7   30 1    
    31    7   31 1    
    32    7   32 1    
    33    8   33 1    
    34    8   34 1    
    35    8   35 1    
    36   11   36 1    
    37   11   37 1    
    38   11   38 1    
    39   12   39 1    
    40   13   40 1    
    41   15   41 1    
    42   15   42 1    
    43   15   43 1    
    44   16   44 1    
    45   19   45 1    
    46   20   46 1    
    47   21   47 1    
    48   21   48 1    
    49   22   49 1    
    50   22   50 1    
    51   23   51 1    
    52   23   52 1    
    53   24   53 1    
    54   24   54 1    
    55   25   55 1    
    56   25   56 1    
    57   26   57 1    
    58   26   58 1    
    59   27   59 1    
    60   27   60 1    
    61   27   61 1    
@<TRIPOS>SUBSTRUCTURE
     1 ****        2 TEMP              0 ****  ****    0 ROOT 
@<TRIPOS>NORMAL
@<TRIPOS>FF_PBC
FORCE_FIELD_SETUP_FEATURE Force Field Setup information
v1.0  0 0.000000 0.000000 0.000000 0.000000 0.000000 0.000000 NONE 0 0 0 0 1 0 0 0 0 0 0 0 0
