#	Name:			PISM00840
#	Creating user name:	baoopengkun
#	Creation time:		Thu Dec 13 14:40:19 2018

#	Modifying user name:	baoopengkun
#	Modification time:	Thu Dec 13 14:47:26 2018

@<TRIPOS>MOLECULE
PISM00840
   24    25     1     1     0
SMALL
GAST_HUCK


@<TRIPOS>ATOM
      1 C1         -6.4375   21.1942   -7.5615 C.ar      1 <1>        -0.0298 
      2 C2         -5.9391   22.3100   -6.8826 C.ar      1 <1>        -0.0597 
      3 C3         -6.2722   22.5182   -5.5407 C.ar      1 <1>        -0.0020 
      4 C4         -7.1060   21.6116   -4.8793 C.ar      1 <1>        -0.0597 
      5 C5         -7.6047   20.4964   -5.5591 C.ar      1 <1>        -0.0298 
      6 C6         -7.2658   20.2850   -6.8981 C.ar      1 <1>         0.1007 
      7 I7         -5.5376   24.1542   -4.5420 I         1 <1>        -0.0588 
      8 O8         -7.7546   19.1678   -7.5714 O.3       1 <1>        -0.2691 
      9 C9         -6.8604   18.0498   -7.5089 C.3       1 <1>         0.2362 
     10 C10        -7.4292   16.9488   -8.3691 C.2       1 <1>        -0.0019 
     11 C11        -6.6131   16.6832   -9.3872 C.2       1 <1>         0.0292 
     12 C12        -5.5044   17.6092   -9.1866 C.2       1 <1>         0.2495 
     13 O13        -5.5972   18.3885   -8.1168 O.3       1 <1>        -0.2313 
     14 C14        -6.7902   15.6795  -10.4937 C.3       1 <1>        -0.0323 
     15 O15        -4.5504   17.6637   -9.9434 O.2       1 <1>        -0.3691 
     16 H1         -6.1836   21.0294   -8.6036 H         1 <1>         0.0549 
     17 H2         -5.2936   23.0143   -7.3974 H         1 <1>         0.0617 
     18 H3         -7.3664   21.7737   -3.8383 H         1 <1>         0.0617 
     19 H4         -8.2553   19.7921   -5.0514 H         1 <1>         0.0549 
     20 H5         -6.7092   17.7028   -6.4730 H         1 <1>         0.1200 
     21 H6         -8.3795   16.4509   -8.1808 H         1 <1>         0.0705 
     22 H7         -6.3108   16.0486  -11.4128 H         1 <1>         0.0347 
     23 H8         -7.8586   15.5087  -10.6939 H         1 <1>         0.0347 
     24 H9         -6.3211   14.7282  -10.2023 H         1 <1>         0.0347 
@<TRIPOS>BOND
     1    2    1 ar   
     2    2    3 ar   
     3    3    4 ar   
     4    4    5 ar   
     5    5    6 ar   
     6    1    6 ar   
     7    3    7 1    
     8    6    8 1    
     9    8    9 1    
    10    9   10 1    
    11   10   11 2    
    12   11   12 1    
    13   12   13 1    
    14    9   13 1    
    15   11   14 1    
    16   12   15 2    
    17    1   16 1    
    18    2   17 1    
    19    4   18 1    
    20    5   19 1    
    21    9   20 1    
    22   10   21 1    
    23   14   22 1    
    24   14   23 1    
    25   14   24 1    
@<TRIPOS>SUBSTRUCTURE
     1 ****        2 TEMP              0 ****  ****    0 ROOT 
@<TRIPOS>NORMAL
@<TRIPOS>FF_PBC
FORCE_FIELD_SETUP_FEATURE Force Field Setup information
v1.0  0 0.000000 0.000000 0.000000 0.000000 0.000000 0.000000 NONE 0 0 0 0 1 0 0 0 0 0 0 0 0
