#	Name:			PISM00587
#	Creating user name:	baoopengkun
#	Creation time:		Mon Dec 10 11:38:53 2018

#	Modifying user name:	baoopengkun
#	Modification time:	Mon Dec 10 11:39:06 2018

@<TRIPOS>MOLECULE
PISM00587
   39    41     1     2     0
SMALL
GAST_HUCK


@<TRIPOS>ATOM
      1 C1         -2.8464    9.0827   -4.3290 C.ar      1 <1>        -0.0348 
      2 C2         -4.2269    9.3000   -4.2918 C.ar      1 <1>        -0.0180 
      3 C3         -5.0850    8.4722   -5.0207 C.ar      1 <1>         0.0714 
      4 C4         -4.5622    7.4211   -5.7788 C.ar      1 <1>        -0.0180 
      5 C5         -3.1820    7.2031   -5.8129 C.ar      1 <1>        -0.0348 
      6 C6         -2.3183    8.0443   -5.1034 C.ar      1 <1>         0.0068 
      7 C7         -0.8002    7.8234   -5.1761 C.3       1 <1>         0.1920 
      8 C8         -0.3784    6.8054   -4.0876 C.3       1 <1>         0.1073 
      9 N9          1.0156    6.3828   -4.1259 N.pl3     1 <1>        -0.1814 
     10 N10         1.5414    5.3067   -3.4751 N.2       1 <1>        -0.1908 
     11 C11         2.7917    5.1407   -3.6993 C.2       1 <1>         0.0618 
     12 N12         3.0516    6.2369   -4.5904 N.2       1 <1>        -0.2870 
     13 C13         2.0036    6.8975   -4.7936 C.2       1 <1>         0.1270 
     14 O14        -0.0821    9.0590   -5.0671 O.3       1 <1>        -0.3815 
     15 C15        -0.2584    9.7383   -6.3139 C.3       1 <1>         0.0647 
     16 C16        -0.2527    8.5558   -7.3154 C.3       1 <1>         0.0728 
     17 O17        -0.4088    7.3927   -6.4866 O.3       1 <1>        -0.3785 
     18 Cl18       -6.8140    8.7513   -4.9833 Cl        1 <1>        -0.0420 
     19 C19        -1.3665    8.6563   -8.3911 C.3       1 <1>        -0.0257 
     20 C20        -1.3540    7.4182   -9.3276 C.3       1 <1>        -0.0535 
     21 C21        -2.4831    7.5015  -10.3874 C.3       1 <1>        -0.0652 
     22 H1         -2.1841    9.7231   -3.7544 H         1 <1>         0.0849 
     23 H2         -4.6347   10.1112   -3.6971 H         1 <1>         0.0703 
     24 H3         -5.2297    6.7753   -6.3404 H         1 <1>         0.0703 
     25 H4         -2.7806    6.3784   -6.3937 H         1 <1>         0.0849 
     26 H5         -0.9883    5.8968   -4.2008 H         1 <1>         0.0595 
     27 H6         -0.5745    7.2431   -3.0978 H         1 <1>         0.0595 
     28 H7          3.4692    4.3776   -3.3192 H         1 <1>         0.0863 
     29 H8          1.9742    7.7682   -5.4453 H         1 <1>         0.1361 
     30 H9          0.5454   10.4704   -6.4872 H         1 <1>         0.0575 
     31 H10        -1.2253   10.2654   -6.3111 H         1 <1>         0.0575 
     32 H11         0.7338    8.4688   -7.8000 H         1 <1>         0.0608 
     33 H12        -1.2064    9.5711   -8.9846 H         1 <1>         0.0290 
     34 H13        -2.3503    8.7308   -7.9033 H         1 <1>         0.0290 
     35 H14        -1.4888    6.5015   -8.7300 H         1 <1>         0.0263 
     36 H15        -0.3799    7.3532   -9.8404 H         1 <1>         0.0263 
     37 H16        -2.4534    6.6165  -11.0428 H         1 <1>         0.0230 
     38 H17        -2.3610    8.4021  -11.0091 H         1 <1>         0.0230 
     39 H18        -3.4683    7.5406   -9.8968 H         1 <1>         0.0230 
@<TRIPOS>BOND
     1    2    1 ar   
     2    2    3 ar   
     3    3    4 ar   
     4    4    5 ar   
     5    5    6 ar   
     6    1    6 ar   
     7    6    7 1    
     8    7    8 1    
     9    8    9 1    
    10    9   10 1    
    11   10   11 2    
    12   11   12 1    
    13   12   13 2    
    14    9   13 1    
    15    7   14 1    
    16   14   15 1    
    17   15   16 1    
    18   16   17 1    
    19    7   17 1    
    20    3   18 1    
    21   16   19 1    
    22   19   20 1    
    23   20   21 1    
    24    1   22 1    
    25    2   23 1    
    26    4   24 1    
    27    5   25 1    
    28    8   26 1    
    29    8   27 1    
    30   11   28 1    
    31   13   29 1    
    32   15   30 1    
    33   15   31 1    
    34   16   32 1    
    35   19   33 1    
    36   19   34 1    
    37   20   35 1    
    38   20   36 1    
    39   21   37 1    
    40   21   38 1    
    41   21   39 1    
@<TRIPOS>SUBSTRUCTURE
     1 ****        2 TEMP              0 ****  ****    0 ROOT 
@<TRIPOS>NORMAL
@<TRIPOS>FF_PBC
FORCE_FIELD_SETUP_FEATURE Force Field Setup information
v1.0  0 0.000000 0.000000 0.000000 0.000000 0.000000 0.000000 NONE 0 0 0 0 1 0 0 0 0 0 0 0 0
@<TRIPOS>RENDERING_ATTRS
ANTIALIASED_LINES 
*
