#	Name:			PISM00508
#	Creating user name:	baoopengkun
#	Creation time:		Mon Dec 17 15:46:20 2018

#	Modifying user name:	baoopengkun
#	Modification time:	Mon Dec 17 15:47:20 2018

@<TRIPOS>MOLECULE
PISM00508
   34    35     1     1     0
SMALL
GAST_HUCK


@<TRIPOS>ATOM
      1 C1         40.3323    1.5930    6.3505 C.3       1 <1>         0.0447 
      2 C2         38.8327    1.2379    6.4768 C.3       1 <1>        -0.0261 
      3 C3         39.2930    2.2488    5.4103 C.3       1 <1>        -0.0261 
      4 C4         40.9280    2.4956    7.4103 C.2       1 <1>         0.1268 
      5 O5         41.4247    3.6665    6.9849 O.3       1 <1>        -0.2970 
      6 C6         40.9738    2.1716    8.7128 C.2       1 <1>         0.0903 
      7 C7         40.4814    0.8685    9.2097 C.2       1 <1>         0.1027 
      8 O8         40.2456   -0.0431    8.4346 O.2       1 <1>        -0.4117 
      9 C9         40.2675    0.6119   10.6768 C.3       1 <1>         0.0353 
     10 C10        40.1113    1.9447   11.4503 C.3       1 <1>         0.0878 
     11 C11        41.3523    2.8361   11.2011 C.3       1 <1>         0.0353 
     12 C12        41.5287    3.0942    9.7289 C.2       1 <1>         0.1027 
     13 O13        42.1448    4.0955    9.4042 O.2       1 <1>        -0.4117 
     14 C14        39.9371    1.7062   12.9280 C.2       1 <1>         0.2411 
     15 O15        39.9939    0.5856   13.4089 O.2       1 <1>        -0.3698 
     16 O16        39.7185    2.8095   13.6556 O.3       1 <1>        -0.2767 
     17 C17        39.5548    2.5522   15.0644 C.3       1 <1>         0.0740 
     18 C18        39.3135    3.9058   15.7738 C.3       1 <1>        -0.0371 
     19 H1         40.9796    0.8514    5.8568 H         1 <1>         0.0614 
     20 H2         38.3074    1.6353    7.3596 H         1 <1>         0.0308 
     21 H3         38.5513    0.2270    6.1422 H         1 <1>         0.0308 
     22 H4         38.9520    3.2783    5.6030 H         1 <1>         0.0308 
     23 H5         39.2162    1.8855    4.3734 H         1 <1>         0.0308 
     24 H6         41.4113    3.8121    6.0460 H         1 <1>         0.2717 
     25 H7         41.1233    0.0319   11.0558 H         1 <1>         0.0502 
     26 H8         39.3536    0.0098   10.8076 H         1 <1>         0.0502 
     27 H9         39.2096    2.4669   11.0880 H         1 <1>         0.0601 
     28 H10        42.2657    2.3620   11.5923 H         1 <1>         0.0502 
     29 H11        41.2145    3.8017   11.7148 H         1 <1>         0.0502 
     30 H12        40.4604    2.0799   15.4829 H         1 <1>         0.0610 
     31 H13        38.6894    1.8903   15.2418 H         1 <1>         0.0610 
     32 H14        38.4108    4.3869   15.3662 H         1 <1>         0.0255 
     33 H15        40.1737    4.5733   15.6093 H         1 <1>         0.0255 
     34 H16        39.1798    3.7567   16.8569 H         1 <1>         0.0255 
@<TRIPOS>BOND
     1    2    1 1    
     2    2    3 1    
     3    1    3 1    
     4    1    4 1    
     5    4    5 1    
     6    4    6 2    
     7    6    7 1    
     8    7    8 2    
     9    7    9 1    
    10    9   10 1    
    11   10   11 1    
    12   11   12 1    
    13   12   13 2    
    14    6   12 1    
    15   10   14 1    
    16   14   15 2    
    17   14   16 1    
    18   16   17 1    
    19   17   18 1    
    20    1   19 1    
    21    2   20 1    
    22    2   21 1    
    23    3   22 1    
    24    3   23 1    
    25    5   24 1    
    26    9   25 1    
    27    9   26 1    
    28   10   27 1    
    29   11   28 1    
    30   11   29 1    
    31   17   30 1    
    32   17   31 1    
    33   18   32 1    
    34   18   33 1    
    35   18   34 1    
@<TRIPOS>SUBSTRUCTURE
     1 ****        2 TEMP              0 ****  ****    0 ROOT 
@<TRIPOS>NORMAL
@<TRIPOS>FF_PBC
FORCE_FIELD_SETUP_FEATURE Force Field Setup information
v1.0  0 0.000000 0.000000 0.000000 0.000000 0.000000 0.000000 NONE 0 0 0 0 1 0 0 0 0 0 0 0 0
