#	Name:			PISM00308
#	Creating user name:	baoopengkun
#	Creation time:		Sun Dec 16 04:03:26 2018

#	Modifying user name:	baoopengkun
#	Modification time:	Sun Dec 16 04:05:31 2018

@<TRIPOS>MOLECULE
PISM00308
   38    40     1     1     0
SMALL
GAST_HUCK


@<TRIPOS>ATOM
      1 C1         -7.4275   15.8556   50.6992 C.3       1 <1>         0.3736 
      2 F2         -8.7615   15.9053   50.9555 F         1 <1>        -0.2207 
      3 F3         -6.8964   14.7632   51.3119 F         1 <1>        -0.2207 
      4 F4         -6.8356   16.9696   51.2086 F         1 <1>        -0.2207 
      5 C5         -7.2173   15.7824   49.1818 C.ar      1 <1>         0.0370 
      6 C6         -7.1412   14.5438   48.5359 C.ar      1 <1>        -0.0423 
      7 C7         -6.9520   14.4847   47.1526 C.ar      1 <1>        -0.0405 
      8 C8         -6.8454   15.6631   46.4085 C.ar      1 <1>        -0.0103 
      9 C9         -6.8935   16.9086   47.0468 C.ar      1 <1>         0.0906 
     10 C10        -7.0998   16.9568   48.4302 C.ar      1 <1>        -0.0108 
     11 N11        -6.7561   18.0658   46.3516 N.pl3     1 <1>        -0.2328 
     12 C12        -5.8328   18.2179   45.4379 C.2       1 <1>         0.2141 
     13 O13        -5.0308   17.3414   45.1627 O.2       1 <1>        -0.3784 
     14 C14        -5.7417   19.5359   44.7062 C.3       1 <1>         0.1114 
     15 S15        -4.5358   19.4413   43.3393 S.3       1 <1>        -0.0026 
     16 C16        -4.7383   21.1232   42.7894 C.2       1 <1>         0.2655 
     17 N17        -5.5222   21.9873   43.2915 N.2       1 <1>        -0.2370 
     18 N18        -5.3343   23.1620   42.5271 N.2       1 <1>        -0.2453 
     19 C19        -4.4595   22.8519   41.6622 C.2       1 <1>         0.2188 
     20 O20        -4.0334   21.5918   41.7574 O.3       1 <1>        -0.1786 
     21 C21        -3.9532   23.8283   40.6235 C.ar      1 <1>         0.0419 
     22 C22        -4.4477   25.1366   40.5833 C.ar      1 <1>        -0.0459 
     23 C23        -3.9778   26.0376   39.6231 C.ar      1 <1>        -0.0587 
     24 C24        -3.0103   25.6330   38.6990 C.ar      1 <1>        -0.0597 
     25 C25        -2.5146   24.3266   38.7355 C.ar      1 <1>        -0.0587 
     26 C26        -2.9856   23.4266   39.6962 C.ar      1 <1>        -0.0459 
     27 H1         -7.2309   13.6236   49.1051 H         1 <1>         0.0764 
     28 H2         -6.8903   13.5214   46.6546 H         1 <1>         0.0671 
     29 H3         -6.7342   15.6002   45.3310 H         1 <1>         0.0781 
     30 H4         -7.1660   17.9202   48.9249 H         1 <1>         0.0743 
     31 H5         -7.3857   18.8520   46.5739 H         1 <1>         0.2112 
     32 H6         -5.4243   20.3157   45.4144 H         1 <1>         0.0660 
     33 H7         -6.7270   19.7949   44.2902 H         1 <1>         0.0660 
     34 H8         -5.1989   25.4570   41.2985 H         1 <1>         0.0647 
     35 H9         -4.3644   27.0521   39.5950 H         1 <1>         0.0623 
     36 H10        -2.6441   26.3327   37.9536 H         1 <1>         0.0635 
     37 H11        -1.7635   24.0109   38.0175 H         1 <1>         0.0623 
     38 H12        -2.5964   22.4136   39.7192 H         1 <1>         0.0647 
@<TRIPOS>BOND
     1    2    1 1    
     2    1    3 1    
     3    1    4 1    
     4    1    5 1    
     5    5    6 ar   
     6    6    7 ar   
     7    7    8 ar   
     8    8    9 ar   
     9    9   10 ar   
    10    5   10 ar   
    11    9   11 1    
    12   11   12 1    
    13   12   13 2    
    14   12   14 1    
    15   14   15 1    
    16   15   16 1    
    17   16   17 2    
    18   17   18 1    
    19   18   19 2    
    20   19   20 1    
    21   16   20 1    
    22   19   21 1    
    23   21   22 ar   
    24   22   23 ar   
    25   23   24 ar   
    26   24   25 ar   
    27   25   26 ar   
    28   21   26 ar   
    29    6   27 1    
    30    7   28 1    
    31    8   29 1    
    32   10   30 1    
    33   11   31 1    
    34   14   32 1    
    35   14   33 1    
    36   22   34 1    
    37   23   35 1    
    38   24   36 1    
    39   25   37 1    
    40   26   38 1    
@<TRIPOS>SUBSTRUCTURE
     1 ****        2 TEMP              0 ****  ****    0 ROOT 
@<TRIPOS>NORMAL
@<TRIPOS>FF_PBC
FORCE_FIELD_SETUP_FEATURE Force Field Setup information
v1.0  0 0.000000 0.000000 0.000000 0.000000 0.000000 0.000000 NONE 0 0 0 0 1 0 0 0 0 0 0 0 0
