#	Name:			PISM00638
#	Creating user name:	baoopengkun
#	Creation time:		Fri Jan 04 22:01:16 2019

#	Modifying user name:	baoopengkun
#	Modification time:	Fri Jan 04 22:06:58 2019

@<TRIPOS>MOLECULE
PISM00638
   89    93     1     1     0
SMALL
GAST_HUCK


@<TRIPOS>ATOM
      1 C1          5.8069    3.3046    5.7996 C.3       1 <1>        -0.0163 
      2 C2          5.5772    2.3609    4.5905 C.3       1 <1>         0.0819 
      3 C3          5.4122    2.7417    7.2148 C.3       1 <1>        -0.0055 
      4 C4          5.9818    1.2832    7.3641 C.3       1 <1>         0.0681 
      5 C5          5.7892    0.3758    6.1045 C.3       1 <1>        -0.0028 
      6 C6          6.3040    1.0105    4.7928 C.3       1 <1>         0.0835 
      7 O7          6.0071    2.9797    3.3655 O.3       1 <1>        -0.3892 
      8 O8          7.7406    1.1068    4.7353 O.3       1 <1>        -0.3891 
      9 C9          6.0381    3.7008    8.3164 C.3       1 <1>        -0.0276 
     10 C10         5.8524    3.2694    9.8160 C.3       1 <1>        -0.0063 
     11 C11         6.4685    1.8707   10.1093 C.3       1 <1>         0.0801 
     12 O12         5.5897    0.7844    9.7988 O.3       1 <1>        -0.2763 
     13 C13         5.3412    0.5226    8.5138 C.2       1 <1>         0.2374 
     14 O14         4.5610   -0.3904    8.2996 O.2       1 <1>        -0.3701 
     15 C15         3.8516    2.6929    7.3132 C.3       1 <1>        -0.0568 
     16 C16         5.6405    5.2054    8.1215 C.3       1 <1>        -0.0487 
     17 C17         6.2885    6.1863    9.1390 C.3       1 <1>        -0.0468 
     18 C18         5.9746    5.7760   10.6047 C.3       1 <1>        -0.0257 
     19 C19         6.5258    4.3276   10.7518 C.3       1 <1>        -0.0298 
     20 C20         6.8205    6.5078   11.7013 C.3       1 <1>        -0.0303 
     21 C21         6.7778    5.4989   12.8916 C.3       1 <1>        -0.0491 
     22 C22         6.4827    4.0975   12.2835 C.3       1 <1>        -0.0491 
     23 C23         4.4471    5.9101   10.9227 C.3       1 <1>        -0.0590 
     24 C24         6.4626    7.9731   12.1384 C.3       1 <1>        -0.0116 
     25 C25         7.3796    8.4712   13.3103 C.3       1 <1>         0.0912 
     26 C26         8.9407    8.4807   13.2372 C.3       1 <1>         0.0911 
     27 C27         9.6762    8.8539   11.9083 C.3       1 <1>        -0.0127 
     28 C28        11.1728    8.3799   11.8787 C.3       1 <1>        -0.0417 
     29 C29        11.9928    8.7963   13.1344 C.3       1 <1>        -0.0623 
     30 C30        11.3124    6.8438   11.6510 C.3       1 <1>        -0.0623 
     31 O31         7.1141    9.8046   13.7469 O.3       1 <1>        -0.3431 
     32 O32         9.3125    9.4855   14.2039 O.3       1 <1>        -0.3431 
     33 C33         8.1333   10.1396   14.7022 C.3       1 <1>         0.1654 
     34 C34         8.3044   11.6779   14.7358 C.3       1 <1>        -0.0108 
     35 C35         7.8303    9.6141   16.1323 C.3       1 <1>        -0.0108 
     36 C36         6.3360    9.0156   10.9877 C.3       1 <1>        -0.0597 
     37 C37         9.5739   10.3735   11.5850 C.3       1 <1>        -0.0597 
     38 H1          5.2144    4.1987    5.5522 H         1 <1>         0.0298 
     39 H2          6.8667    3.5990    5.7933 H         1 <1>         0.0298 
     40 H3          4.4966    2.1785    4.4669 H         1 <1>         0.0619 
     41 H4          7.0690    1.3271    7.5125 H         1 <1>         0.0560 
     42 H5          4.7264    0.1320    5.9470 H         1 <1>         0.0319 
     43 H6          6.3234   -0.5787    6.2506 H         1 <1>         0.0319 
     44 H7          6.0376    0.3554    3.9448 H         1 <1>         0.0621 
     45 H8          6.9488    3.1183    3.3409 H         1 <1>         0.2099 
     46 H9          8.1393    1.6444    5.4082 H         1 <1>         0.2099 
     47 H10         7.1296    3.6856    8.1583 H         1 <1>         0.0311 
     48 H11         4.7905    3.2035   10.0835 H         1 <1>         0.0332 
     49 H12         6.5273    1.7169   11.1938 H         1 <1>         0.0616 
     50 H13         7.4948    1.7555    9.7292 H         1 <1>         0.0616 
     51 H14         3.4236    1.9700    6.6076 H         1 <1>         0.0237 
     52 H15         3.3918    3.6626    7.0808 H         1 <1>         0.0237 
     53 H16         3.5127    2.3965    8.3146 H         1 <1>         0.0237 
     54 H17         4.5512    5.3281    8.1560 H         1 <1>         0.0268 
     55 H18         5.9783    5.5821    7.1444 H         1 <1>         0.0268 
     56 H19         5.9150    7.1957    8.9214 H         1 <1>         0.0271 
     57 H20         7.3788    6.2003    8.9736 H         1 <1>         0.0271 
     58 H21         7.5986    4.3174   10.4860 H         1 <1>         0.0310 
     59 H22         7.8576    6.5239   11.3379 H         1 <1>         0.0310 
     60 H23         5.9837    5.7479   13.6142 H         1 <1>         0.0268 
     61 H24         7.7358    5.4987   13.4387 H         1 <1>         0.0268 
     62 H25         5.4841    3.7315   12.5736 H         1 <1>         0.0268 
     63 H26         7.2319    3.3688   12.6362 H         1 <1>         0.0268 
     64 H27         3.8128    5.2439   10.3278 H         1 <1>         0.0235 
     65 H28         4.1058    6.9313   10.7107 H         1 <1>         0.0235 
     66 H29         4.2166    5.7044   11.9759 H         1 <1>         0.0235 
     67 H30         5.4489    7.9442   12.5759 H         1 <1>         0.0327 
     68 H31         7.1040    7.8362   14.1673 H         1 <1>         0.0626 
     69 H32         9.2954    7.4999   13.5833 H         1 <1>         0.0626 
     70 H33         9.2017    8.3321   11.0711 H         1 <1>         0.0326 
     71 H34        11.6533    8.8544   11.0040 H         1 <1>         0.0299 
     72 H35        11.9579    9.8814   13.3043 H         1 <1>         0.0232 
     73 H36        13.0494    8.5144   13.0037 H         1 <1>         0.0232 
     74 H37        11.6201    8.2902   14.0369 H         1 <1>         0.0232 
     75 H38        12.3725    6.5785   11.5128 H         1 <1>         0.0232 
     76 H39        10.7690    6.5292   10.7464 H         1 <1>         0.0232 
     77 H40        10.9328    6.2618   12.5023 H         1 <1>         0.0232 
     78 H41         8.4473   12.0722   13.7211 H         1 <1>         0.0281 
     79 H42         9.1788   11.9510   15.3451 H         1 <1>         0.0281 
     80 H43         7.4050   12.1463   15.1628 H         1 <1>         0.0281 
     81 H44         6.8278    9.9447   16.4420 H         1 <1>         0.0281 
     82 H45         8.5714   10.0160   16.8394 H         1 <1>         0.0281 
     83 H46         7.8793    8.5189   16.1995 H         1 <1>         0.0281 
     84 H47         5.4132    8.8704   10.4110 H         1 <1>         0.0233 
     85 H48         7.1765    8.9809   10.2849 H         1 <1>         0.0233 
     86 H49         6.2624   10.0309   11.4037 H         1 <1>         0.0233 
     87 H50        10.1479   10.9792   12.2983 H         1 <1>         0.0233 
     88 H51         8.5318   10.7129   11.6179 H         1 <1>         0.0233 
     89 H52         9.9621   10.5823   10.5757 H         1 <1>         0.0233 
@<TRIPOS>BOND
     1    1    2 1    
     2    1    3 1    
     3    3    4 1    
     4    4    5 1    
     5    5    6 1    
     6    2    6 1    
     7    2    7 1    
     8    6    8 1    
     9    3    9 1    
    10    9   10 1    
    11   10   11 1    
    12   11   12 1    
    13   12   13 1    
    14   13   14 2    
    15    4   13 1    
    16    3   15 1    
    17    9   16 1    
    18   16   17 1    
    19   17   18 1    
    20   18   19 1    
    21   10   19 1    
    22   18   20 1    
    23   20   21 1    
    24   21   22 1    
    25   19   22 1    
    26   18   23 1    
    27   20   24 1    
    28   24   25 1    
    29   25   26 1    
    30   26   27 1    
    31   27   28 1    
    32   28   29 1    
    33   28   30 1    
    34   25   31 1    
    35   26   32 1    
    36   32   33 1    
    37   31   33 1    
    38   33   34 1    
    39   33   35 1    
    40   24   36 1    
    41   27   37 1    
    42    1   38 1    
    43    1   39 1    
    44    2   40 1    
    45    4   41 1    
    46    5   42 1    
    47    5   43 1    
    48    6   44 1    
    49    7   45 1    
    50    8   46 1    
    51    9   47 1    
    52   10   48 1    
    53   11   49 1    
    54   11   50 1    
    55   15   51 1    
    56   15   52 1    
    57   15   53 1    
    58   16   54 1    
    59   16   55 1    
    60   17   56 1    
    61   17   57 1    
    62   19   58 1    
    63   20   59 1    
    64   21   60 1    
    65   21   61 1    
    66   22   62 1    
    67   22   63 1    
    68   23   64 1    
    69   23   65 1    
    70   23   66 1    
    71   24   67 1    
    72   25   68 1    
    73   26   69 1    
    74   27   70 1    
    75   28   71 1    
    76   29   72 1    
    77   29   73 1    
    78   29   74 1    
    79   30   75 1    
    80   30   76 1    
    81   30   77 1    
    82   34   78 1    
    83   34   79 1    
    84   34   80 1    
    85   35   81 1    
    86   35   82 1    
    87   35   83 1    
    88   36   84 1    
    89   36   85 1    
    90   36   86 1    
    91   37   87 1    
    92   37   88 1    
    93   37   89 1    
@<TRIPOS>SUBSTRUCTURE
     1 ****        1 TEMP              0 ****  ****    0 ROOT 
@<TRIPOS>NORMAL
@<TRIPOS>FF_PBC
FORCE_FIELD_SETUP_FEATURE Force Field Setup information
v1.0  0 0.000000 0.000000 0.000000 0.000000 0.000000 0.000000 NONE 0 0 0 0 1 0 0 0 0 0 0 0 0
