#	Name:			PISM00720
#	Creating user name:	baoopengkun
#	Creation time:		Sun Jan 20 21:34:04 2019

#	Modifying user name:	baoopengkun
#	Modification time:	Sun Jan 20 21:50:56 2019

@<TRIPOS>MOLECULE
PISM00720
   91    94     1     1     0
SMALL
GAST_HUCK


@<TRIPOS>ATOM
      1 C1         -0.5003    1.2451   -0.3170 C.3       1 <1>        -0.0163 
      2 C2         -0.8719   -0.2072    0.0948 C.3       1 <1>         0.0819 
      3 C3         -0.3379   -0.5376    1.5170 C.3       1 <1>         0.0835 
      4 C4         -0.8344    0.5039    2.5533 C.3       1 <1>        -0.0028 
      5 C5         -0.3970    1.9279    2.1058 C.3       1 <1>         0.0681 
      6 C6         -0.9642    2.3359    0.7013 C.3       1 <1>        -0.0055 
      7 C7         -0.4433    3.7757    0.3016 C.3       1 <1>        -0.0276 
      8 C8          1.0130    4.0796    0.7842 C.3       1 <1>        -0.0063 
      9 C9          1.0438    4.3785    2.3239 C.3       1 <1>         0.0801 
     10 O10        -0.1720    4.2032    3.0905 O.3       1 <1>        -0.2763 
     11 C11        -0.7559    2.9923    3.1105 C.2       1 <1>         0.2374 
     12 O12        -1.6112    2.7698    3.9506 O.2       1 <1>        -0.3701 
     13 C13        -0.5934    4.1470   -1.2057 C.3       1 <1>        -0.0487 
     14 C14        -0.3640    5.6751   -1.4516 C.3       1 <1>        -0.0468 
     15 C15         0.8232    6.3064   -0.6380 C.3       1 <1>        -0.0257 
     16 C16         1.7135    5.1331   -0.1437 C.3       1 <1>        -0.0298 
     17 C17         3.0552    5.7654    0.3006 C.3       1 <1>        -0.0491 
     18 C18         3.1874    7.0064   -0.6301 C.3       1 <1>        -0.0491 
     19 C19         1.8818    7.1037   -1.4851 C.3       1 <1>        -0.0304 
     20 O20        -0.2796   -1.0940   -0.8751 O.3       1 <1>        -0.3892 
     21 O21         1.1018   -0.5239    1.5201 O.3       1 <1>        -0.3891 
     22 C22         4.9256   11.5717   -2.3106 C.3       1 <1>        -0.0480 
     23 C23        -2.5330    2.3904    0.7399 C.3       1 <1>        -0.0568 
     24 C24         0.2942    7.1921    0.5360 C.3       1 <1>        -0.0590 
     25 C25         1.5656    8.5754   -1.9403 C.3       1 <1>        -0.0120 
     26 C26         2.7733    9.2400   -2.6971 C.3       1 <1>         0.0841 
     27 C27         2.5525   10.7426   -3.0634 C.3       1 <1>         0.0839 
     28 C28         3.8639   11.5014   -3.4611 C.3       1 <1>        -0.0154 
     29 C29         7.1497   10.6878   -1.3725 C.3       1 <1>        -0.0531 
     30 C30         8.3969    9.8029   -1.6456 C.3       1 <1>        -0.0533 
     31 C31         6.1535   10.6481   -2.5642 C.3       1 <1>        -0.0527 
     32 C32         0.2623    8.6569   -2.7848 C.3       1 <1>        -0.0597 
     33 O33         3.1077    8.5835   -3.9370 O.3       1 <1>        -0.3890 
     34 O34         1.6337   10.8341   -4.1671 O.3       1 <1>        -0.3890 
     35 C35         3.5059   12.9398   -3.9420 C.3       1 <1>        -0.0600 
     36 C36         9.3925    9.8452   -0.4544 C.3       1 <1>        -0.0559 
     37 C37        10.6404    8.9666   -0.7307 C.3       1 <1>        -0.0653 
     38 H1         -0.9504    1.4223   -1.3058 H         1 <1>         0.0298 
     39 H2          0.5929    1.2855   -0.4350 H         1 <1>         0.0298 
     40 H3         -1.9651   -0.3485    0.0619 H         1 <1>         0.0619 
     41 H4         -0.6883   -1.5414    1.8189 H         1 <1>         0.0621 
     42 H5         -0.3689    0.2691    3.5259 H         1 <1>         0.0319 
     43 H6         -1.9204    0.4240    2.6999 H         1 <1>         0.0319 
     44 H7          0.6955    1.8347    2.1078 H         1 <1>         0.0560 
     45 H8         -1.0952    4.5009    0.8086 H         1 <1>         0.0311 
     46 H9          1.6305    3.1822    0.6149 H         1 <1>         0.0332 
     47 H10         1.2200    5.4449    2.4996 H         1 <1>         0.0616 
     48 H11         1.8735    3.8456    2.8183 H         1 <1>         0.0616 
     49 H12        -1.5942    3.9037   -1.5927 H         1 <1>         0.0268 
     50 H13         0.1172    3.5519   -1.8003 H         1 <1>         0.0268 
     51 H14        -1.3018    6.1916   -1.1888 H         1 <1>         0.0271 
     52 H15        -0.2170    5.8019   -2.5361 H         1 <1>         0.0271 
     53 H16         2.0097    4.5893   -1.0620 H         1 <1>         0.0310 
     54 H17         3.8962    5.0595    0.1860 H         1 <1>         0.0268 
     55 H18         3.0509    6.0906    1.3502 H         1 <1>         0.0268 
     56 H19         4.0771    6.9139   -1.2757 H         1 <1>         0.0268 
     57 H20         3.3139    7.9082   -0.0081 H         1 <1>         0.0268 
     58 H21         2.0415    6.5171   -2.4040 H         1 <1>         0.0310 
     59 H22        -0.4850   -2.0126   -0.7283 H         1 <1>         0.2099 
     60 H23         1.4696   -1.1224    0.8763 H         1 <1>         0.2099 
     61 H24         4.4610   11.3363   -1.3404 H         1 <1>         0.0269 
     62 H25         5.3265   12.5941   -2.2166 H         1 <1>         0.0269 
     63 H26        -2.9493    2.6650   -0.2378 H         1 <1>         0.0237 
     64 H27        -2.8835    3.1354    1.4702 H         1 <1>         0.0237 
     65 H28        -3.0138    1.4455    1.0115 H         1 <1>         0.0237 
     66 H29        -0.3033    8.0294    0.1504 H         1 <1>         0.0235 
     67 H30         1.1113    7.6167    1.1349 H         1 <1>         0.0235 
     68 H31        -0.3658    6.6363    1.2115 H         1 <1>         0.0235 
     69 H32         1.4061    9.1777   -1.0313 H         1 <1>         0.0327 
     70 H33         3.6374    9.2079   -2.0220 H         1 <1>         0.0622 
     71 H34         2.1004   11.2713   -2.2088 H         1 <1>         0.0622 
     72 H35         4.3014   10.9830   -4.3312 H         1 <1>         0.0324 
     73 H36         6.6412   10.3300   -0.4620 H         1 <1>         0.0265 
     74 H37         7.4749   11.7271   -1.2009 H         1 <1>         0.0265 
     75 H38         8.9057   10.1606   -2.5560 H         1 <1>         0.0265 
     76 H39         8.0764    8.7618   -1.8156 H         1 <1>         0.0265 
     77 H40         6.6716   10.9889   -3.4762 H         1 <1>         0.0265 
     78 H41         5.8355    9.6076   -2.7301 H         1 <1>         0.0265 
     79 H42         0.4040    8.1529   -3.7527 H         1 <1>         0.0233 
     80 H43        -0.0371    9.6983   -2.9628 H         1 <1>         0.0233 
     81 H44        -0.5877    8.1986   -2.2689 H         1 <1>         0.0233 
     82 H45         3.4207    7.6915   -3.8393 H         1 <1>         0.2099 
     83 H46         1.9417   10.3269   -4.9129 H         1 <1>         0.2099 
     84 H47         2.7990   12.9214   -4.7857 H         1 <1>         0.0233 
     85 H48         4.4096   13.4701   -4.2817 H         1 <1>         0.0233 
     86 H49         3.0505   13.5124   -3.1193 H         1 <1>         0.0233 
     87 H50         8.8913    9.4826    0.4587 H         1 <1>         0.0263 
     88 H51         9.7166   10.8849   -0.2801 H         1 <1>         0.0263 
     89 H52        10.3445    7.9180   -0.8902 H         1 <1>         0.0230 
     90 H53        11.3312    9.0090    0.1263 H         1 <1>         0.0230 
     91 H54        11.1717    9.3244   -1.6264 H         1 <1>         0.0230 
@<TRIPOS>BOND
     1    2    1 1    
     2    2    3 1    
     3    3    4 1    
     4    4    5 1    
     5    5    6 1    
     6    1    6 1    
     7    6    7 1    
     8    7    8 1    
     9    8    9 1    
    10    9   10 1    
    11   10   11 1    
    12   11   12 2    
    13    5   11 1    
    14    7   13 1    
    15   13   14 1    
    16   14   15 1    
    17   15   16 1    
    18    8   16 1    
    19   16   17 1    
    20   17   18 1    
    21   18   19 1    
    22   15   19 1    
    23    2   20 1    
    24    3   21 1    
    25   28   22 1    
    26    6   23 1    
    27   15   24 1    
    28   19   25 1    
    29   25   26 1    
    30   26   27 1    
    31   27   28 1    
    32   31   29 1    
    33   29   30 1    
    34   22   31 1    
    35   25   32 1    
    36   26   33 1    
    37   27   34 1    
    38   28   35 1    
    39   30   36 1    
    40   36   37 1    
    41    1   38 1    
    42    1   39 1    
    43    2   40 1    
    44    3   41 1    
    45    4   42 1    
    46    4   43 1    
    47    5   44 1    
    48    7   45 1    
    49    8   46 1    
    50    9   47 1    
    51    9   48 1    
    52   13   49 1    
    53   13   50 1    
    54   14   51 1    
    55   14   52 1    
    56   16   53 1    
    57   17   54 1    
    58   17   55 1    
    59   18   56 1    
    60   18   57 1    
    61   19   58 1    
    62   20   59 1    
    63   21   60 1    
    64   22   61 1    
    65   22   62 1    
    66   23   63 1    
    67   23   64 1    
    68   23   65 1    
    69   24   66 1    
    70   24   67 1    
    71   24   68 1    
    72   25   69 1    
    73   26   70 1    
    74   27   71 1    
    75   28   72 1    
    76   29   73 1    
    77   29   74 1    
    78   30   75 1    
    79   30   76 1    
    80   31   77 1    
    81   31   78 1    
    82   32   79 1    
    83   32   80 1    
    84   32   81 1    
    85   33   82 1    
    86   34   83 1    
    87   35   84 1    
    88   35   85 1    
    89   35   86 1    
    90   36   87 1    
    91   36   88 1    
    92   37   89 1    
    93   37   90 1    
    94   37   91 1    
@<TRIPOS>SUBSTRUCTURE
     1 ****        2 TEMP              0 ****  ****    0 ROOT 
@<TRIPOS>NORMAL
@<TRIPOS>FF_PBC
FORCE_FIELD_SETUP_FEATURE Force Field Setup information
v1.0  0 0.000000 0.000000 0.000000 0.000000 0.000000 0.000000 NONE 0 0 0 0 1 0 0 0 0 0 0 0 0
