#	Name:			PISM00454
#	Creating user name:	baoopengkun
#	Creation time:		Wed Feb 27 21:38:48 2019

#	Modifying user name:	baoopengkun
#	Modification time:	Wed Feb 27 21:40:30 2019

@<TRIPOS>MOLECULE
PISM00454
   54    57     1     1     0
SMALL
GAST_HUCK


@<TRIPOS>ATOM
      1 C1         17.0373    1.7555  -12.2787 C.2       1 <1>         0.0899 
      2 C2         15.5846    1.3753  -12.2552 C.3       1 <1>         0.0138 
      3 C3         14.7535    2.5358  -12.8505 C.3       1 <1>        -0.0238 
      4 C4         15.3091    2.9128  -14.2468 C.3       1 <1>         0.0138 
      5 C5         16.7814    3.2775  -14.1911 C.2       1 <1>         0.0637 
      6 C6         17.5649    2.7360  -13.2501 C.2       1 <1>         0.0186 
      7 N7         17.2478    4.1054  -15.0958 N.pl3     1 <1>        -0.2574 
      8 C8         18.5105    4.4671  -15.1699 C.2       1 <1>         0.0625 
      9 C9         19.4310    4.0357  -14.2876 C.2       1 <1>         0.0470 
     10 C10        19.0183    3.1009  -13.1820 C.3       1 <1>         0.0228 
     11 C11        19.3519    3.7348  -11.8210 C.ar      1 <1>        -0.0451 
     12 C12        18.7105    4.9064  -11.4041 C.ar      1 <1>        -0.0669 
     13 C13        19.0620    5.5131  -10.1928 C.ar      1 <1>        -0.0681 
     14 C14        20.0534    4.9512   -9.3779 C.ar      1 <1>        -0.0538 
     15 C15        20.6687    3.7623   -9.7806 C.ar      1 <1>        -0.0681 
     16 C16        20.3108    3.1513  -10.9845 C.ar      1 <1>        -0.0669 
     17 C17        20.4721    5.6081   -8.0565 C.3       1 <1>        -0.0348 
     18 C18        18.9042    5.3905  -16.3124 C.3       1 <1>        -0.0001 
     19 C19        20.8696    4.4052  -14.3032 C.2       1 <1>         0.2207 
     20 O20        21.6352    3.8347  -13.5416 O.2       1 <1>        -0.3919 
     21 O21        21.3331    5.3477  -15.1361 O.3       1 <1>        -0.2745 
     22 C22        22.7304    5.6606  -14.9583 C.3       1 <1>         0.1079 
     23 C23        23.1461    6.6440  -16.0593 C.ar      1 <1>        -0.0132 
     24 C24        22.9968    6.2628  -17.3971 C.ar      1 <1>        -0.0578 
     25 C25        23.4070    7.1141  -18.4271 C.ar      1 <1>        -0.0685 
     26 C26        23.9680    8.3571  -18.1217 C.ar      1 <1>        -0.0687 
     27 C27        24.0870    8.7575  -16.7882 C.ar      1 <1>        -0.0685 
     28 C28        23.6741    7.9059  -15.7587 C.ar      1 <1>        -0.0578 
     29 O29        17.7926    1.2278  -11.4807 O.2       1 <1>        -0.4146 
     30 H1         15.2682    1.1809  -11.2170 H         1 <1>         0.0470 
     31 H2         15.4597    0.4496  -12.8387 H         1 <1>         0.0470 
     32 H3         14.8211    3.4132  -12.1851 H         1 <1>         0.0317 
     33 H4         13.6937    2.2381  -12.9236 H         1 <1>         0.0317 
     34 H5         14.6950    3.7458  -14.6265 H         1 <1>         0.0503 
     35 H6         15.1988    2.0631  -14.9389 H         1 <1>         0.0503 
     36 H7         16.5858    4.4764  -15.7957 H         1 <1>         0.2222 
     37 H8         19.5782    2.1632  -13.3284 H         1 <1>         0.0516 
     38 H9         17.9361    5.3500  -12.0218 H         1 <1>         0.0532 
     39 H10        18.5593    6.4241   -9.8875 H         1 <1>         0.0537 
     40 H11        21.4302    3.3059   -9.1565 H         1 <1>         0.0537 
     41 H12        20.7872    2.2181  -11.2673 H         1 <1>         0.0532 
     42 H13        20.0388    5.0372   -7.2216 H         1 <1>         0.0376 
     43 H14        20.1268    6.6507   -7.9940 H         1 <1>         0.0376 
     44 H15        21.5692    5.5994   -7.9640 H         1 <1>         0.0376 
     45 H16        19.7034    4.9128  -16.8990 H         1 <1>         0.0465 
     46 H17        19.2597    6.3552  -15.9202 H         1 <1>         0.0465 
     47 H18        18.0920    5.6104  -17.0199 H         1 <1>         0.0465 
     48 H19        23.3637    4.7642  -15.0634 H         1 <1>         0.0774 
     49 H20        22.8882    6.0947  -13.9581 H         1 <1>         0.0774 
     50 H21        22.5622    5.2985  -17.6398 H         1 <1>         0.0557 
     51 H22        23.2907    6.8083  -19.4618 H         1 <1>         0.0599 
     52 H23        24.3095    9.0081  -18.9213 H         1 <1>         0.0559 
     53 H24        24.5030    9.7328  -16.5536 H         1 <1>         0.0599 
     54 H25        23.7681    8.2298  -14.7267 H         1 <1>         0.0557 
@<TRIPOS>BOND
     1    2    1 1    
     2    2    3 1    
     3    3    4 1    
     4    4    5 1    
     5    5    6 2    
     6    1    6 1    
     7    5    7 1    
     8    7    8 1    
     9    8    9 2    
    10    9   10 1    
    11    6   10 1    
    12   10   11 1    
    13   11   12 ar   
    14   12   13 ar   
    15   13   14 ar   
    16   14   15 ar   
    17   15   16 ar   
    18   11   16 ar   
    19   14   17 1    
    20    8   18 1    
    21    9   19 1    
    22   19   20 2    
    23   19   21 1    
    24   21   22 1    
    25   22   23 1    
    26   23   24 ar   
    27   24   25 ar   
    28   25   26 ar   
    29   26   27 ar   
    30   27   28 ar   
    31   23   28 ar   
    32    1   29 2    
    33    2   30 1    
    34    2   31 1    
    35    3   32 1    
    36    3   33 1    
    37    4   34 1    
    38    4   35 1    
    39    7   36 1    
    40   10   37 1    
    41   12   38 1    
    42   13   39 1    
    43   15   40 1    
    44   16   41 1    
    45   17   42 1    
    46   17   43 1    
    47   17   44 1    
    48   18   45 1    
    49   18   46 1    
    50   18   47 1    
    51   22   48 1    
    52   22   49 1    
    53   24   50 1    
    54   25   51 1    
    55   26   52 1    
    56   27   53 1    
    57   28   54 1    
@<TRIPOS>SUBSTRUCTURE
     1 ****        2 TEMP              0 ****  ****    0 ROOT 
@<TRIPOS>NORMAL
@<TRIPOS>FF_PBC
FORCE_FIELD_SETUP_FEATURE Force Field Setup information
v1.0  0 0.000000 0.000000 0.000000 0.000000 0.000000 0.000000 NONE 0 0 0 0 1 0 0 0 0 0 0 0 0
