#	Name:			PISM00253
#	Creating user name:	14062
#	Creation time:		Mon Apr 01 21:12:43 2019

#	Modifying user name:	14062
#	Modification time:	Mon Apr 01 21:32:15 2019

@<TRIPOS>MOLECULE
PISM00253
   30    31     1     2     0
SMALL
GAST_HUCK


@<TRIPOS>ATOM
      1 N1          1.9113    8.9281   -0.4544 N.pl3     1 <1>        -0.2884 
      2 C2          0.6182    9.0694   -0.8041 C.ar      1 <1>         0.0606 
      3 C3          0.1361    7.8597   -1.2624 C.ar      1 <1>        -0.0189 
      4 C4         -1.1799    7.7015   -1.6938 C.ar      1 <1>        -0.0745 
      5 C5         -1.9990    8.8366   -1.6527 C.ar      1 <1>        -0.0792 
      6 C6         -1.5104   10.0691   -1.1888 C.ar      1 <1>        -0.0767 
      7 C7          1.3362    6.9543   -1.1458 C.2       1 <1>        -0.0208 
      8 C8          2.3346    7.7042   -0.6470 C.2       1 <1>         0.0197 
      9 C9         -0.1866   10.2075   -0.7517 C.ar      1 <1>        -0.0442 
     10 C10         1.3152    5.4999   -1.5480 C.3       1 <1>         0.0919 
     11 C11         0.3687    4.7643   -0.6374 C.2       1 <1>         0.2418 
     12 O12        -0.4858    4.0109   -1.0751 O.2       1 <1>        -0.3685 
     13 O13         0.5239    4.9792    0.6690 O.3       1 <1>        -0.2916 
     14 C14         2.6950    4.7895   -1.6232 C.3       1 <1>         0.0458 
     15 C15         3.2514    4.3665   -0.2843 C.2       1 <1>         0.1057 
     16 O16         3.9526    5.1163    0.3735 O.2       1 <1>        -0.3916 
     17 C17         2.9560    2.9720    0.2118 C.3       1 <1>         0.0097 
     18 H1          2.4940    9.6943   -0.0831 H         1 <1>         0.2219 
     19 H2         -1.5467    6.7428   -2.0436 H         1 <1>         0.0540 
     20 H3         -3.0301    8.7618   -1.9863 H         1 <1>         0.0510 
     21 H4         -2.1700   10.9316   -1.1693 H         1 <1>         0.0530 
     22 H5          3.3486    7.3704   -0.4307 H         1 <1>         0.0804 
     23 H6          0.1992   11.1543   -0.3899 H         1 <1>         0.0541 
     24 H7          0.8859    5.5011   -2.5634 H         1 <1>         0.0660 
     25 H8         -0.1156    4.4926    1.1767 H         1 <1>         0.2540 
     26 H9          3.4215    5.4343   -2.1410 H         1 <1>         0.0536 
     27 H10         2.5816    3.8792   -2.2329 H         1 <1>         0.0536 
     28 H11         3.6944    2.2748   -0.2113 H         1 <1>         0.0459 
     29 H12         1.9488    2.6361   -0.0742 H         1 <1>         0.0459 
     30 H13         3.0345    2.9404    1.3084 H         1 <1>         0.0459 
@<TRIPOS>BOND
     1    8    1 1    
     2    1    2 1    
     3    3    2 ar   
     4    7    3 1    
     5    3    4 ar   
     6    4    5 ar   
     7    5    6 ar   
     8    7    8 2    
     9    9    6 ar   
    10    2    9 ar   
    11    7   10 1    
    12   10   11 1    
    13   11   12 2    
    14   11   13 1    
    15   10   14 1    
    16   14   15 1    
    17   15   16 2    
    18   15   17 1    
    19    1   18 1    
    20    4   19 1    
    21    5   20 1    
    22    6   21 1    
    23    8   22 1    
    24    9   23 1    
    25   10   24 1    
    26   13   25 1    
    27   14   26 1    
    28   14   27 1    
    29   17   28 1    
    30   17   29 1    
    31   17   30 1    
@<TRIPOS>SUBSTRUCTURE
     1 ****        7 TEMP              0 ****  ****    0 ROOT 
@<TRIPOS>NORMAL
@<TRIPOS>FF_PBC
FORCE_FIELD_SETUP_FEATURE Force Field Setup information
v1.0  0 0.000000 0.000000 0.000000 0.000000 0.000000 0.000000 NONE 0 0 0 0 1 0 0 0 0 0 0 0 0
@<TRIPOS>RENDERING_ATTRS
ANTIALIASED_LINES 
1,2,3,4,5,6,7,8,9,10,11,12,13,14,15,16,17
