#	Name:			PISM00835.2
#	Creating user name:	baoopengkun
#	Creation time:		Fri Nov 30 18:55:18 2018

#	Modifying user name:	baoopengkun
#	Modification time:	Fri Nov 30 19:04:51 2018

@<TRIPOS>MOLECULE
PISM00835.2
   31    32     1     2     0
SMALL
GAST_HUCK


@<TRIPOS>ATOM
      1 C1        -11.1310    1.3364   13.1490 C.ar      1 <1>        -0.0351 
      2 C2        -10.1742    0.7033   12.3508 C.ar      1 <1>        -0.0352 
      3 C3        -10.5184   -0.4634   11.6643 C.ar      1 <1>         0.0095 
      4 N4        -11.7653   -0.9647   11.7692 N.ar      1 <1>        -0.2976 
      5 C5        -12.6996   -0.3785   12.5465 C.ar      1 <1>         0.0188 
      6 C6        -12.4119    0.7839   13.2723 C.ar      1 <1>         0.0235 
      7 C7        -13.4819    1.4000   14.1528 C.2       1 <1>         0.0784 
      8 C8        -13.0681    2.3959   15.2246 C.3       1 <1>         0.0419 
      9 N9        -12.7870    3.7029   14.5915 N.3       1 <1>        -0.3188 
     10 N10       -14.6887    1.0434   13.9255 N.2       1 <1>        -0.1559 
     11 O11       -15.5757    1.6932   14.8025 O.3       1 <1>        -0.1963 
     12 C12       -16.1006    0.7711   15.7644 C.3       1 <1>         0.2541 
     13 C13       -16.9655    1.5403   16.7317 C.2       1 <1>         0.0005 
     14 C14       -16.4415    1.5013   17.9555 C.2       1 <1>         0.0293 
     15 C15       -15.2409    0.6909   17.7889 C.2       1 <1>         0.2496 
     16 O16       -15.0286    0.2288   16.5636 O.3       1 <1>        -0.2290 
     17 O17       -14.4819    0.4483   18.7110 O.2       1 <1>        -0.3691 
     18 C18       -16.9491    2.1346   19.2219 C.3       1 <1>        -0.0323 
     19 H1        -10.8638    2.2554   13.6577 H         1 <1>         0.0732 
     20 H2         -9.1731    1.1139   12.2630 H         1 <1>         0.0704 
     21 H3         -9.7885   -0.9723   11.0435 H         1 <1>         0.0808 
     22 H4        -13.6832   -0.8319   12.5998 H         1 <1>         0.0824 
     23 H5        -12.1548    2.0125   15.7066 H         1 <1>         0.0589 
     24 H6        -13.8033    2.5242   16.0341 H         1 <1>         0.0589 
     25 H7        -12.4394    4.4199   15.3244 H         1 <1>         0.1206 
     26 H8        -13.6753    4.0859   14.1057 H         1 <1>         0.1206 
     27 H9        -16.6597   -0.0365   15.2653 H         1 <1>         0.1227 
     28 H10       -17.8829    2.0587   16.4559 H         1 <1>         0.0707 
     29 H11       -17.8565    2.7277   19.0326 H         1 <1>         0.0347 
     30 H12       -16.1713    2.7926   19.6371 H         1 <1>         0.0347 
     31 H13       -17.1808    1.3477   19.9549 H         1 <1>         0.0347 
@<TRIPOS>BOND
     1    2    1 ar   
     2    2    3 ar   
     3    3    4 ar   
     4    4    5 ar   
     5    5    6 ar   
     6    1    6 ar   
     7    6    7 1    
     8    7    8 1    
     9    8    9 1    
    10    7   10 2    
    11   10   11 1    
    12   11   12 1    
    13   12   13 1    
    14   13   14 2    
    15   14   15 1    
    16   15   16 1    
    17   12   16 1    
    18   15   17 2    
    19   14   18 1    
    20    1   19 1    
    21    2   20 1    
    22    3   21 1    
    23    5   22 1    
    24    8   23 1    
    25    8   24 1    
    26    9   25 1    
    27    9   26 1    
    28   12   27 1    
    29   13   28 1    
    30   18   29 1    
    31   18   30 1    
    32   18   31 1    
@<TRIPOS>SUBSTRUCTURE
     1 ****        2 TEMP              0 ****  ****    0 ROOT 
@<TRIPOS>NORMAL
@<TRIPOS>FF_PBC
FORCE_FIELD_SETUP_FEATURE Force Field Setup information
v1.0  0 0.000000 0.000000 0.000000 0.000000 0.000000 0.000000 NONE 0 0 0 0 1 0 0 0 0 0 0 0 0
@<TRIPOS>RENDERING_ATTRS
ANTIALIASED_LINES 
*
