#	Name:			PISM00817.1
#	Creating user name:	baoopengkun
#	Creation time:		Fri Nov 30 17:22:57 2018

#	Modifying user name:	baoopengkun
#	Modification time:	Fri Nov 30 17:26:51 2018

@<TRIPOS>MOLECULE
PISM00817.1
   34    35     1     2     0
SMALL
GAST_HUCK


@<TRIPOS>ATOM
      1 C1          6.2364    0.1639    1.9265 C.ar      1 <1>        -0.0642 
      2 C2          6.6786    1.4165    1.4917 C.ar      1 <1>        -0.0692 
      3 C3          6.5036    1.7935    0.1574 C.ar      1 <1>        -0.0685 
      4 C4          5.9115    0.9058   -0.7453 C.ar      1 <1>        -0.0555 
      5 C5          5.4967   -0.3590   -0.3190 C.ar      1 <1>         0.0369 
      6 C6          5.6222   -0.7160    1.0294 C.ar      1 <1>        -0.0149 
      7 H7          5.7757    1.1966   -1.7819 H         1 <1>         0.0604 
      8 C8          5.1091   -2.0433    1.5437 C.2       1 <1>         0.0840 
      9 C9          5.9729   -2.9693    2.3124 C.2       1 <1>         0.2399 
     10 O10         7.2487   -3.2534    1.9900 O.3       1 <1>        -0.2864 
     11 C11         7.7733   -2.6880    0.7738 C.3       1 <1>         0.0638 
     12 O12         5.4886   -3.5294    3.2813 O.2       1 <1>        -0.3769 
     13 C13         3.8312   -2.3781    1.3256 C.2       1 <1>         0.1068 
     14 O14         3.0241   -1.5215    0.6814 O.3       1 <1>        -0.2488 
     15 C15         1.7270   -2.0486    0.3540 C.3       1 <1>         0.2460 
     16 C16         1.8687   -3.1211   -0.7029 C.2       1 <1>         0.0005 
     17 C17         1.3542   -2.7094   -1.8598 C.2       1 <1>         0.0294 
     18 C18         0.8478   -1.3774   -1.5521 C.2       1 <1>         0.2497 
     19 O19         1.0041   -0.9840   -0.2947 O.3       1 <1>        -0.2292 
     20 C20         1.3115   -3.4412   -3.1731 C.3       1 <1>        -0.0323 
     21 O21         0.3052   -0.6730   -2.3858 O.2       1 <1>        -0.3691 
     22 H1          6.3682   -0.1243    2.9649 H         1 <1>         0.0554 
     23 H2          7.1557    2.0969    2.1905 H         1 <1>         0.0599 
     24 H24         6.8282    2.7740   -0.1776 H         1 <1>         0.0557 
     25 Cl25        4.8412   -1.4860   -1.4936 Cl        1 <1>        -0.0770 
     26 H5          8.7400   -3.1816    0.5957 H         1 <1>         0.0574 
     27 H6          7.9757   -1.6118    0.8648 H         1 <1>         0.0574 
     28 H7          7.1278   -2.8891   -0.0954 H         1 <1>         0.0574 
     29 H8          3.4893   -3.3488    1.6942 H         1 <1>         0.1339 
     30 H9          1.1583   -2.3839    1.2379 H         1 <1>         0.1227 
     31 H10         2.3359   -4.0933   -0.5521 H         1 <1>         0.0707 
     32 H11         2.2870   -3.9080   -3.3762 H         1 <1>         0.0347 
     33 H12         1.0752   -2.7423   -3.9895 H         1 <1>         0.0347 
     34 H13         0.5377   -4.2221   -3.1346 H         1 <1>         0.0347 
@<TRIPOS>BOND
     1    2    1 ar   
     2    2    3 ar   
     3    3    4 ar   
     4    4    5 ar   
     5    5    6 ar   
     6    1    6 ar   
     7    4    7 1    
     8    6    8 1    
     9    8    9 1    
    10    9   10 1    
    11   10   11 1    
    12    9   12 2    
    13    8   13 2    
    14   13   14 1    
    15   14   15 1    
    16   15   16 1    
    17   16   17 2    
    18   17   18 1    
    19   18   19 1    
    20   15   19 1    
    21   17   20 1    
    22   18   21 2    
    23    1   22 1    
    24    2   23 1    
    25    3   24 1    
    26    5   25 1    
    27   11   26 1    
    28   11   27 1    
    29   11   28 1    
    30   13   29 1    
    31   15   30 1    
    32   16   31 1    
    33   20   32 1    
    34   20   33 1    
    35   20   34 1    
@<TRIPOS>SUBSTRUCTURE
     1 ****        2 TEMP              0 ****  ****    0 ROOT 
@<TRIPOS>NORMAL
@<TRIPOS>FF_PBC
FORCE_FIELD_SETUP_FEATURE Force Field Setup information
v1.0  0 0.000000 0.000000 0.000000 0.000000 0.000000 0.000000 NONE 0 0 0 0 1 0 0 0 0 0 0 0 0
@<TRIPOS>RENDERING_ATTRS
ANTIALIASED_LINES 
*
