#	Name:			PISM00888.1
#	Creating user name:	baoopengkun
#	Creation time:		Fri Dec 14 09:30:18 2018

#	Modifying user name:	baoopengkun
#	Modification time:	Fri Dec 14 09:44:32 2018

@<TRIPOS>MOLECULE
PISM00888.1
   37    39     1     1     0
SMALL
GAST_HUCK


@<TRIPOS>ATOM
      1 C1          6.5431    6.6381    2.5039 C.ar      1 <1>        -0.0467 
      2 C2          6.5111    6.8301    3.8896 C.ar      1 <1>         0.0375 
      3 C3          6.9688    8.0450    4.4113 C.ar      1 <1>        -0.0467 
      4 C4          7.4656    9.0395    3.5639 C.ar      1 <1>        -0.0701 
      5 C5          7.4977    8.8479    2.1787 C.ar      1 <1>        -0.0314 
      6 C6          7.0214    7.6405    1.6543 C.ar      1 <1>        -0.0701 
      7 C7          8.0477    9.9571    1.3054 C.2       1 <1>         0.0614 
      8 N8          8.5061   11.2180    1.8385 N.2       1 <1>        -0.2198 
      9 N9          8.9050   11.8837    0.7420 N.2       1 <1>        -0.0879 
     10 N10         8.7059   11.1267   -0.3567 N.pl3     1 <1>        -0.1262 
     11 C11         8.2017    9.9715   -0.0232 C.2       1 <1>         0.0885 
     12 C12         9.0518   11.5461   -1.7030 C.3       1 <1>         0.2436 
     13 C13         7.8973   12.3418   -2.2602 C.2       1 <1>         0.0016 
     14 C14         7.3865   11.7348   -3.3297 C.2       1 <1>         0.0295 
     15 C15         8.2149   10.5431   -3.4751 C.2       1 <1>         0.2498 
     16 O16         9.1898   10.4119   -2.5839 O.3       1 <1>        -0.2284 
     17 O17         8.0322    9.7196   -4.3546 O.2       1 <1>        -0.3691 
     18 C18         6.2228   12.1624   -4.1816 C.3       1 <1>        -0.0323 
     19 N19         6.0451    5.8557    4.7139 N.pl3     1 <1>        -0.3161 
     20 C20         4.8490    5.0928    4.3562 C.3       1 <1>         0.0148 
     21 C21         6.7337    5.5585    5.9702 C.3       1 <1>         0.0148 
     22 H1          6.2017    5.7017    2.0759 H         1 <1>         0.0511 
     23 H2          6.9360    8.2287    5.4797 H         1 <1>         0.0511 
     24 H3          7.8279    9.9692    3.9913 H         1 <1>         0.0556 
     25 H4          7.0165    7.4614    0.5860 H         1 <1>         0.0556 
     26 H5          7.9560    9.1713   -0.7186 H         1 <1>         0.1041 
     27 H6          9.9819   12.1366   -1.6905 H         1 <1>         0.1242 
     28 H7          7.5339   13.2774   -1.8364 H         1 <1>         0.0709 
     29 H8          6.5809   12.8264   -4.9822 H         1 <1>         0.0347 
     30 H9          5.4776   12.6978   -3.5743 H         1 <1>         0.0347 
     31 H10         5.7453   11.2804   -4.6345 H         1 <1>         0.0347 
     32 H11         4.1829    5.6718    3.6971 H         1 <1>         0.0477 
     33 H12         4.2785    4.8298    5.2604 H         1 <1>         0.0477 
     34 H13         5.1450    4.1643    3.8448 H         1 <1>         0.0477 
     35 H14         6.6726    4.4824    6.1944 H         1 <1>         0.0477 
     36 H15         6.2571    6.1165    6.7904 H         1 <1>         0.0477 
     37 H16         7.8002    5.8298    5.9212 H         1 <1>         0.0477 
@<TRIPOS>BOND
     1    2    1 ar   
     2    2    3 ar   
     3    3    4 ar   
     4    4    5 ar   
     5    5    6 ar   
     6    1    6 ar   
     7    5    7 1    
     8    7    8 1    
     9    8    9 2    
    10    9   10 1    
    11   10   11 1    
    12    7   11 2    
    13   10   12 1    
    14   12   13 1    
    15   13   14 2    
    16   14   15 1    
    17   15   16 1    
    18   12   16 1    
    19   15   17 2    
    20   14   18 1    
    21    2   19 1    
    22   19   20 1    
    23   19   21 1    
    24    1   22 1    
    25    3   23 1    
    26    4   24 1    
    27    6   25 1    
    28   11   26 1    
    29   12   27 1    
    30   13   28 1    
    31   18   29 1    
    32   18   30 1    
    33   18   31 1    
    34   20   32 1    
    35   20   33 1    
    36   20   34 1    
    37   21   35 1    
    38   21   36 1    
    39   21   37 1    
@<TRIPOS>SUBSTRUCTURE
     1 ****        2 TEMP              0 ****  ****    0 ROOT 
@<TRIPOS>NORMAL
@<TRIPOS>FF_PBC
FORCE_FIELD_SETUP_FEATURE Force Field Setup information
v1.0  0 0.000000 0.000000 0.000000 0.000000 0.000000 0.000000 NONE 0 0 0 0 1 0 0 0 0 0 0 0 0
