#	Name:			PISM00555
#	Creating user name:	baoopengkun
#	Creation time:		Sat Dec 15 14:51:35 2018

#	Modifying user name:	baoopengkun
#	Modification time:	Sat Dec 15 15:03:30 2018

@<TRIPOS>MOLECULE
PISM00555
   35    36     1     1     0
SMALL
GAST_HUCK


@<TRIPOS>ATOM
      1 C1          5.3451   10.0283   21.3023 C.3       1 <1>        -0.0559 
      2 C2          6.7119   11.6843   19.9547 C.3       1 <1>        -0.0559 
      3 Cl3         2.0020    5.7286   15.8379 Cl        1 <1>        -0.0782 
      4 H4         -0.4246    4.2545   16.1344 H         1 <1>         0.0596 
      5 H1          6.2531    9.4516   21.5361 H         1 <1>         0.0238 
      6 H2          4.4892    9.3380   21.3280 H         1 <1>         0.0238 
      7 C7          4.2001   11.5443   19.5951 C.3       1 <1>         0.0217 
      8 C8          5.4848   10.7266   19.9157 C.3       1 <1>        -0.0064 
      9 C9          5.6947    9.6642   18.7983 C.3       1 <1>         0.0217 
     10 C10         4.4842    8.7863   18.6320 C.2       1 <1>         0.1096 
     11 C11         3.1276    9.2635   18.9635 C.2       1 <1>         0.0865 
     12 C12         2.9954   10.6559   19.4357 C.2       1 <1>         0.1096 
     13 O13         1.8931   11.1042   19.7060 O.2       1 <1>        -0.4045 
     14 O14         4.6215    7.6464   18.2140 O.2       1 <1>        -0.4045 
     15 C15         2.0553    8.4636   18.8412 C.2       1 <1>         0.0697 
     16 N16         2.1371    7.2242   18.4212 N.pl3     1 <1>        -0.2530 
     17 C17         1.0433    6.4294   18.3108 C.ar      1 <1>         0.0860 
     18 C18         0.1063    6.3531   19.3489 C.ar      1 <1>        -0.0351 
     19 C19        -1.0328    5.5531   19.2187 C.ar      1 <1>        -0.0701 
     20 C20        -1.2271    4.7967   18.0601 C.ar      1 <1>        -0.0718 
     21 C21        -0.2826    4.8484   17.0317 C.ar      1 <1>        -0.0563 
     22 C22         0.8449    5.6656   17.1536 C.ar      1 <1>         0.0652 
     23 H3          5.2016   10.7764   22.0970 H         1 <1>         0.0238 
     24 H5          7.6340   11.1234   20.1718 H         1 <1>         0.0238 
     25 H6          6.5812   12.4500   20.7349 H         1 <1>         0.0238 
     26 H7          6.8404   12.1964   18.9886 H         1 <1>         0.0238 
     27 H8          4.3160   12.1137   18.6604 H         1 <1>         0.0481 
     28 H9          4.0110   12.2608   20.4101 H         1 <1>         0.0481 
     29 H10         6.5618    9.0336   19.0504 H         1 <1>         0.0481 
     30 H11         5.8911   10.1429   17.8268 H         1 <1>         0.0481 
     31 H12         1.0847    8.8908   19.1038 H         1 <1>         0.1321 
     32 H13         3.0624    6.8373   18.1474 H         1 <1>         0.2284 
     33 H14         0.2608    6.9077   20.2687 H         1 <1>         0.0547 
     34 H15        -1.7660    5.5169   20.0190 H         1 <1>         0.0592 
     35 H16        -2.1084    4.1702   17.9597 H         1 <1>         0.0528 
@<TRIPOS>BOND
     1    8    1 1    
     2    8    2 1    
     3   22    3 1    
     4   21    4 1    
     5    1    5 1    
     6    1    6 1    
     7    1   23 1    
     8    7    8 1    
     9    8    9 1    
    10    9   10 1    
    11   11   10 1    
    12   12   11 1    
    13    7   12 1    
    14   12   13 2    
    15   10   14 2    
    16   11   15 2    
    17   15   16 1    
    18   16   17 1    
    19   17   18 ar   
    20   18   19 ar   
    21   19   20 ar   
    22   21   20 ar   
    23   22   21 ar   
    24   17   22 ar   
    25    2   24 1    
    26    2   25 1    
    27    2   26 1    
    28    7   27 1    
    29    7   28 1    
    30    9   29 1    
    31    9   30 1    
    32   15   31 1    
    33   16   32 1    
    34   18   33 1    
    35   19   34 1    
    36   20   35 1    
@<TRIPOS>SUBSTRUCTURE
     1 ****        7 TEMP              0 ****  ****    0 ROOT 
@<TRIPOS>NORMAL
@<TRIPOS>FF_PBC
FORCE_FIELD_SETUP_FEATURE Force Field Setup information
v1.0  0 0.000000 0.000000 0.000000 0.000000 0.000000 0.000000 NONE 0 0 0 0 1 0 0 0 0 0 0 0 0
