#	Name:			PISM00027
#	Creating user name:	baoopengkun
#	Creation time:		Sat Nov 17 17:31:58 2018

#	Modifying user name:	baoopengkun
#	Modification time:	Sat Nov 17 17:38:59 2018

@<TRIPOS>MOLECULE
PISM00027
   28    30     1     2     0
SMALL
GAST_HUCK


@<TRIPOS>ATOM
      1 C1         -4.4804    2.2422   -0.1459 C.ar      1 <1>        -0.0603 
      2 C2         -4.6619    3.5422    0.3418 C.ar      1 <1>        -0.0754 
      3 C3         -4.9160    3.7736    1.7036 C.ar      1 <1>        -0.0735 
      4 C4         -4.9996    2.7249    2.6320 C.ar      1 <1>        -0.0360 
      5 C5         -4.8180    1.4247    2.1494 C.ar      1 <1>         0.1016 
      6 C6         -4.5692    1.2246    0.7999 C.ar      1 <1>         0.0372 
      7 N7         -4.4496   -0.0989    0.6733 N.2       1 <1>        -0.3028 
      8 C8         -4.6023   -0.6626    1.7976 C.2       1 <1>         0.1210 
      9 N9         -4.8307    0.2033    2.7573 N.pl3     1 <1>        -0.1881 
     10 C10        -5.0370   -0.0075    4.0371 C.2       1 <1>         0.1638 
     11 C11        -5.0870   -1.2047    4.8909 C.2       1 <1>         0.1598 
     12 C12        -5.3597   -0.5346    6.0066 C.2       1 <1>         0.0594 
     13 N13        -5.4165    0.7769    5.7652 N.3       1 <1>        -0.1943 
     14 N14        -5.2617    0.9418    4.8616 N.2       1 <1>        -0.2417 
     15 C15        -5.5928   -1.0776    7.3932 C.3       1 <1>        -0.0140 
     16 N16        -4.9422   -2.4992    4.7754 N.pl3     1 <1>         0.0081 
     17 O17        -5.0531   -3.3720    5.8686 O.3       1 <1>        -0.2503 
     18 O18        -4.6759   -2.9218    3.6832 O.2       1 <1>        -0.1398 
     19 H1         -4.2829    2.0324   -1.1913 H         1 <1>         0.0558 
     20 H2         -4.6049    4.3815   -0.3446 H         1 <1>         0.0527 
     21 H3         -5.0519    4.7944    2.0482 H         1 <1>         0.0547 
     22 H4         -5.1981    2.9459    3.6725 H         1 <1>         0.0559 
     23 H5         -4.5260   -1.7418    1.7985 H         1 <1>         0.1369 
     24 H6         -4.6856    1.3075    6.3659 H         1 <1>         0.1987 
     25 H7         -6.3880   -1.8374    7.3756 H         1 <1>         0.0404 
     26 H8         -5.9048   -0.2704    8.0728 H         1 <1>         0.0404 
     27 H9         -4.6651   -1.5261    7.7787 H         1 <1>         0.0404 
     28 H10        -5.5396   -4.1540    5.6294 H         1 <1>         0.2495 
@<TRIPOS>BOND
     1    2    1 ar   
     2    2    3 ar   
     3    3    4 ar   
     4    4    5 ar   
     5    5    6 ar   
     6    1    6 ar   
     7    6    7 1    
     8    7    8 2    
     9    8    9 1    
    10    5    9 1    
    11    9   10 1    
    12   10   11 1    
    13   11   12 2    
    14   12   13 1    
    15   13   14 1    
    16   10   14 2    
    17   12   15 1    
    18   11   16 1    
    19   16   17 1    
    20   16   18 2    
    21    1   19 1    
    22    2   20 1    
    23    3   21 1    
    24    4   22 1    
    25    8   23 1    
    26   13   24 1    
    27   15   25 1    
    28   15   26 1    
    29   15   27 1    
    30   17   28 1    
@<TRIPOS>SUBSTRUCTURE
     1 ****        2 TEMP              0 ****  ****    0 ROOT 
@<TRIPOS>NORMAL
@<TRIPOS>FF_PBC
FORCE_FIELD_SETUP_FEATURE Force Field Setup information
v1.0  0 0.000000 0.000000 0.000000 0.000000 0.000000 0.000000 NONE 0 0 0 0 1 0 0 0 0 0 0 0 0
@<TRIPOS>RENDERING_ATTRS
ANTIALIASED_LINES 
*
