#	Name:			PISM00366
#	Creating user name:	malab
#	Creation time:		Tue Apr 02 20:32:38 2019

#	Modifying user name:	malab
#	Modification time:	Tue Apr 02 20:38:17 2019

@<TRIPOS>MOLECULE
PISM00366
   48    50     1     1     0
SMALL
GAST_HUCK


@<TRIPOS>ATOM
      1 N1          6.5448   -0.9568   -7.3052 N.2       1 <1>        -0.1730 
      2 C2          7.1585   -1.1738   -8.4068 C.2       1 <1>         0.0653 
      3 N3          6.2248   -0.5966   -9.3276 N.2       1 <1>        -0.2827 
      4 C4          5.2339   -0.1280   -8.7175 C.2       1 <1>         0.1489 
      5 N5          5.3486   -0.3077   -7.4299 N.pl3     1 <1>        -0.1236 
      6 C6          4.5334    0.0610   -6.4690 C.2       1 <1>         0.1347 
      7 C7          4.9884   -0.3456   -5.0708 C.3       1 <1>         0.1322 
      8 O8          6.3994   -0.1267   -4.8797 O.3       1 <1>        -0.3716 
      9 N9         -1.0724    1.8341   -2.0648 N.2       1 <1>        -0.0916 
     10 N10        -1.7281    2.4964   -1.0975 N.2       1 <1>        -0.2239 
     11 C11         3.3926    0.7403   -6.6911 C.2       1 <1>        -0.0370 
     12 C12         2.9172    2.2280   -4.7010 C.ar      1 <1>        -0.0693 
     13 C13         2.0834    2.6632   -3.6665 C.ar      1 <1>        -0.0312 
     14 C14         0.7734    2.1799   -3.5625 C.ar      1 <1>         0.1107 
     15 C15         0.3190    1.2493   -4.5029 C.ar      1 <1>        -0.0312 
     16 C16         1.1586    0.7957   -5.5241 C.ar      1 <1>        -0.0693 
     17 N17        -0.0661    2.5783   -2.5743 N.pl3     1 <1>        -0.1417 
     18 C18         2.4729    1.2620   -5.6086 C.ar      1 <1>        -0.0552 
     19 C19         4.5447   -1.7944   -4.6639 C.3       1 <1>         0.0043 
     20 C20         5.0564   -2.8856   -5.6519 C.3       1 <1>        -0.0552 
     21 C21         5.0982   -2.1167   -3.2429 C.3       1 <1>        -0.0552 
     22 C22         2.9890   -1.8771   -4.6180 C.3       1 <1>        -0.0552 
     23 C23        -1.0373    3.7606   -1.0626 C.2       1 <1>         0.0637 
     24 C24        -0.0580    3.7384   -1.9730 C.2       1 <1>         0.0848 
     25 C25        -1.4115    4.8858   -0.1300 C.3       1 <1>         0.0792 
     26 O26        -2.8163    5.1854   -0.2242 O.3       1 <1>        -0.3861 
     27 H1          8.1166   -1.6571   -8.5916 H         1 <1>         0.0879 
     28 H2          4.4423    0.3465   -9.2935 H         1 <1>         0.1387 
     29 H3          4.5539    0.3233   -4.3179 H         1 <1>         0.0846 
     30 H4          6.9299   -0.6266   -5.4924 H         1 <1>         0.2141 
     31 H5          3.0225    0.9883   -7.6811 H         1 <1>         0.0306 
     32 H6          3.9142    2.6464   -4.8001 H         1 <1>         0.0534 
     33 H7          2.4749    3.3717   -2.9465 H         1 <1>         0.0577 
     34 H8         -0.6980    0.8766   -4.4421 H         1 <1>         0.0577 
     35 H9          0.7867    0.0800   -6.2501 H         1 <1>         0.0534 
     36 H10         4.7065   -3.8802   -5.3351 H         1 <1>         0.0238 
     37 H11         6.1551   -2.9185   -5.6825 H         1 <1>         0.0238 
     38 H12         4.6760   -2.7093   -6.6689 H         1 <1>         0.0238 
     39 H13         4.7739   -3.1157   -2.9130 H         1 <1>         0.0238 
     40 H14         4.7385   -1.3821   -2.5060 H         1 <1>         0.0238 
     41 H15         6.1989   -2.0989   -3.2406 H         1 <1>         0.0238 
     42 H16         2.5630   -1.7195   -5.6198 H         1 <1>         0.0238 
     43 H17         2.5736   -1.1222   -3.9325 H         1 <1>         0.0238 
     44 H18         2.6603   -2.8675   -4.2671 H         1 <1>         0.0238 
     45 H19         0.6119    4.5774   -2.1558 H         1 <1>         0.0902 
     46 H20        -0.8119    5.7889   -0.3336 H         1 <1>         0.0676 
     47 H21        -1.2078    4.5616    0.9022 H         1 <1>         0.0676 
     48 H22        -3.0849    5.4317   -1.1044 H         1 <1>         0.2118 
@<TRIPOS>BOND
     1    2    1 2    
     2    2    3 1    
     3    3    4 2    
     4    4    5 1    
     5    1    5 1    
     6    5    6 1    
     7    6    7 1    
     8    7    8 1    
     9   17    9 1    
    10    9   10 2    
    11   10   23 1    
    12    6   11 2    
    13   18   12 ar   
    14   12   13 ar   
    15   13   14 ar   
    16   15   14 ar   
    17   16   15 ar   
    18   18   16 ar   
    19   11   18 1    
    20   14   17 1    
    21    7   19 1    
    22   19   20 1    
    23   19   21 1    
    24   19   22 1    
    25   24   23 2    
    26   17   24 1    
    27   23   25 1    
    28   25   26 1    
    29    2   27 1    
    30    4   28 1    
    31    7   29 1    
    32    8   30 1    
    33   11   31 1    
    34   12   32 1    
    35   13   33 1    
    36   15   34 1    
    37   16   35 1    
    38   20   36 1    
    39   20   37 1    
    40   20   38 1    
    41   21   39 1    
    42   21   40 1    
    43   21   41 1    
    44   22   42 1    
    45   22   43 1    
    46   22   44 1    
    47   24   45 1    
    48   25   46 1    
    49   25   47 1    
    50   26   48 1    
@<TRIPOS>SUBSTRUCTURE
     1 ****        2 TEMP              0 ****  ****    0 ROOT 
@<TRIPOS>NORMAL
@<TRIPOS>FF_PBC
FORCE_FIELD_SETUP_FEATURE Force Field Setup information
v1.0  0 0.000000 0.000000 0.000000 0.000000 0.000000 0.000000 NONE 0 0 0 0 1 0 0 0 0 0 0 0 0
