#	Name:			PISM00888
#	Creating user name:	baoopengkun
#	Creation time:		Fri Dec 14 09:30:18 2018

#	Modifying user name:	baoopengkun
#	Modification time:	Fri Dec 14 09:45:11 2018

@<TRIPOS>MOLECULE
PISM00888
   37    39     1     1     0
SMALL
GAST_HUCK


@<TRIPOS>ATOM
      1 C1         13.1157   16.5482   -4.5260 C.ar      1 <1>        -0.0467 
      2 C2         14.0127   17.2074   -3.6782 C.ar      1 <1>         0.0375 
      3 C3         14.1365   16.7667   -2.3560 C.ar      1 <1>        -0.0467 
      4 C4         13.3651   15.6989   -1.8881 C.ar      1 <1>        -0.0701 
      5 C5         12.4698   15.0385   -2.7361 C.ar      1 <1>        -0.0314 
      6 C6         12.3583   15.4673   -4.0639 C.ar      1 <1>        -0.0701 
      7 C7         11.6574   13.8867   -2.1803 C.2       1 <1>         0.0614 
      8 N8         11.7621   13.4441   -0.8102 N.2       1 <1>        -0.2198 
      9 N9         10.8900   12.4237   -0.7536 N.2       1 <1>        -0.0879 
     10 N10        10.2956   12.2565   -1.9530 N.pl3     1 <1>        -0.1262 
     11 C11        10.7585   13.1225   -2.8104 C.2       1 <1>         0.0885 
     12 C12         9.3146   11.2244   -2.2364 C.3       1 <1>         0.2436 
     13 C13         7.9433   11.7859   -1.9522 C.2       1 <1>         0.0016 
     14 C14         7.2150   11.8225   -3.0666 C.2       1 <1>         0.0295 
     15 C15         8.1075   11.2660   -4.0771 C.2       1 <1>         0.2498 
     16 O16         9.3036   10.8910   -3.6400 O.3       1 <1>        -0.2284 
     17 O17         7.7834   11.1491   -5.2458 O.2       1 <1>        -0.3691 
     18 C18         5.8017   12.3048   -3.2482 C.3       1 <1>        -0.0323 
     19 N19        14.7494   18.2561   -4.1298 N.pl3     1 <1>        -0.3161 
     20 C20        15.3586   18.2150   -5.4595 C.3       1 <1>         0.0148 
     21 C21        14.9422   19.4395   -3.2914 C.3       1 <1>         0.0148 
     22 H1         12.9944   16.8766   -5.5525 H         1 <1>         0.0511 
     23 H2         14.8385   17.2465   -1.6829 H         1 <1>         0.0511 
     24 H3         13.4676   15.3821   -0.8549 H         1 <1>         0.0556 
     25 H4         11.6848   14.9733   -4.7536 H         1 <1>         0.0556 
     26 H5         10.4521   13.1941   -3.8521 H         1 <1>         0.1041 
     27 H6          9.5190   10.3262   -1.6318 H         1 <1>         0.1242 
     28 H7          7.6070   12.1191   -0.9710 H         1 <1>         0.0709 
     29 H8          5.8142   13.3601   -3.5585 H         1 <1>         0.0347 
     30 H9          5.2360   12.2115   -2.3090 H         1 <1>         0.0347 
     31 H10         5.3011   11.7087   -4.0260 H         1 <1>         0.0347 
     32 H11        15.5531   17.1802   -5.7832 H         1 <1>         0.0477 
     33 H12        16.3204   18.7506   -5.4563 H         1 <1>         0.0477 
     34 H13        14.6885   18.7002   -6.1852 H         1 <1>         0.0477 
     35 H14        14.9870   20.3462   -3.9142 H         1 <1>         0.0477 
     36 H15        15.8883   19.3464   -2.7371 H         1 <1>         0.0477 
     37 H16        14.1152   19.5667   -2.5749 H         1 <1>         0.0477 
@<TRIPOS>BOND
     1    2    1 ar   
     2    2    3 ar   
     3    3    4 ar   
     4    4    5 ar   
     5    5    6 ar   
     6    1    6 ar   
     7    5    7 1    
     8    7    8 1    
     9    8    9 2    
    10    9   10 1    
    11   10   11 1    
    12    7   11 2    
    13   10   12 1    
    14   12   13 1    
    15   13   14 2    
    16   14   15 1    
    17   15   16 1    
    18   12   16 1    
    19   15   17 2    
    20   14   18 1    
    21    2   19 1    
    22   19   20 1    
    23   19   21 1    
    24    1   22 1    
    25    3   23 1    
    26    4   24 1    
    27    6   25 1    
    28   11   26 1    
    29   12   27 1    
    30   13   28 1    
    31   18   29 1    
    32   18   30 1    
    33   18   31 1    
    34   20   32 1    
    35   20   33 1    
    36   20   34 1    
    37   21   35 1    
    38   21   36 1    
    39   21   37 1    
@<TRIPOS>SUBSTRUCTURE
     1 ****        2 TEMP              0 ****  ****    0 ROOT 
@<TRIPOS>NORMAL
@<TRIPOS>FF_PBC
FORCE_FIELD_SETUP_FEATURE Force Field Setup information
v1.0  0 0.000000 0.000000 0.000000 0.000000 0.000000 0.000000 NONE 0 0 0 0 1 0 0 0 0 0 0 0 0
