#	Name:			PISM00606
#	Creating user name:	baoopengkun
#	Creation time:		Mon Dec 10 09:56:39 2018

#	Modifying user name:	baoopengkun
#	Modification time:	Mon Dec 10 09:56:54 2018

@<TRIPOS>MOLECULE
PISM00606
   44    47     1     2     0
SMALL
GAST_HUCK


@<TRIPOS>ATOM
      1 C1          3.5499    9.4549   -6.6114 C.ar      1 <1>        -0.0348 
      2 C2          2.6435    9.8501   -5.6231 C.ar      1 <1>        -0.0180 
      3 C3          2.2388    8.9419   -4.6409 C.ar      1 <1>         0.0714 
      4 C4          2.7458    7.6397   -4.6439 C.ar      1 <1>        -0.0180 
      5 C5          3.6471    7.2435   -5.6361 C.ar      1 <1>        -0.0348 
      6 C6          4.0428    8.1459   -6.6293 C.ar      1 <1>         0.0068 
      7 C7          5.0163    7.6913   -7.7260 C.3       1 <1>         0.1921 
      8 C8          6.4685    7.8393   -7.2072 C.3       1 <1>         0.1073 
      9 N9          7.5220    7.4369   -8.1298 N.pl3     1 <1>        -0.1814 
     10 N10         8.8612    7.4931   -7.8823 N.2       1 <1>        -0.1908 
     11 C11         9.5752    7.0796   -8.8622 C.2       1 <1>         0.0618 
     12 N12         8.5531    6.7340   -9.8107 N.2       1 <1>        -0.2870 
     13 C13         7.4142    6.9604   -9.3334 C.2       1 <1>         0.1270 
     14 O14         4.8189    8.3866   -8.9635 O.3       1 <1>        -0.3814 
     15 C15         3.6183    7.8658   -9.5419 C.3       1 <1>         0.0672 
     16 C16         3.6426    6.3872   -9.0755 C.3       1 <1>         0.1004 
     17 O17         4.7219    6.3473   -8.1260 O.3       1 <1>        -0.3757 
     18 C18         2.2889    5.9212   -8.4790 C.3       1 <1>         0.0978 
     19 O19         2.4001    4.5613   -8.0253 O.3       1 <1>        -0.3151 
     20 C20         1.2247    4.0610   -7.4676 C.ar      1 <1>         0.0917 
     21 C21         0.9520    4.2650   -6.1122 C.ar      1 <1>        -0.0324 
     22 C22        -0.2372    3.7821   -5.5582 C.ar      1 <1>        -0.0567 
     23 C23        -1.1486    3.0872   -6.3585 C.ar      1 <1>         0.0285 
     24 C24        -0.8694    2.8716   -7.7112 C.ar      1 <1>        -0.0567 
     25 C25         0.3188    3.3573   -8.2652 C.ar      1 <1>        -0.0324 
     26 Cl26        1.0979    9.4349   -3.4066 Cl        1 <1>        -0.0420 
     27 H1          3.8714   10.1675   -7.3649 H         1 <1>         0.0849 
     28 H2          2.2527   10.8626   -5.6162 H         1 <1>         0.0703 
     29 H3          2.4383    6.9381   -3.8751 H         1 <1>         0.0703 
     30 H4          4.0390    6.2305   -5.6365 H         1 <1>         0.0849 
     31 H5          6.5840    7.2328   -6.2968 H         1 <1>         0.0595 
     32 H6          6.6428    8.8955   -6.9540 H         1 <1>         0.0595 
     33 H7         10.6583    7.0101   -8.9501 H         1 <1>         0.0863 
     34 H8          6.4970    6.7692   -9.8865 H         1 <1>         0.1361 
     35 H9          3.6272    7.9839  -10.6366 H         1 <1>         0.0576 
     36 H10         2.7555    8.4130   -9.1311 H         1 <1>         0.0576 
     37 H11         3.9210    5.7098   -9.8993 H         1 <1>         0.0635 
     38 H12         1.5139    5.9888   -9.2598 H         1 <1>         0.0640 
     39 H13         1.9995    6.5719   -7.6406 H         1 <1>         0.0640 
     40 H14         1.6663    4.7981   -5.4946 H         1 <1>         0.0543 
     41 H15        -0.4546    3.9452   -4.5075 H         1 <1>         0.0595 
     42 Cl42       -2.6410    2.4858   -5.6659 Cl        1 <1>        -0.0810 
     43 H43        -1.5760    2.3273   -8.3293 H         1 <1>         0.0595 
     44 H44         0.5428    3.1915   -9.3137 H         1 <1>         0.0543 
@<TRIPOS>BOND
     1    2    1 ar   
     2    2    3 ar   
     3    3    4 ar   
     4    4    5 ar   
     5    5    6 ar   
     6    1    6 ar   
     7    6    7 1    
     8    7    8 1    
     9    8    9 1    
    10    9   10 1    
    11   10   11 2    
    12   11   12 1    
    13   12   13 2    
    14    9   13 1    
    15    7   14 1    
    16   14   15 1    
    17   15   16 1    
    18   16   17 1    
    19    7   17 1    
    20   16   18 1    
    21   18   19 1    
    22   19   20 1    
    23   20   21 ar   
    24   21   22 ar   
    25   22   23 ar   
    26   23   24 ar   
    27   24   25 ar   
    28   20   25 ar   
    29    3   26 1    
    30    1   27 1    
    31    2   28 1    
    32    4   29 1    
    33    5   30 1    
    34    8   31 1    
    35    8   32 1    
    36   11   33 1    
    37   13   34 1    
    38   15   35 1    
    39   15   36 1    
    40   16   37 1    
    41   18   38 1    
    42   18   39 1    
    43   21   40 1    
    44   22   41 1    
    45   23   42 1    
    46   24   43 1    
    47   25   44 1    
@<TRIPOS>SUBSTRUCTURE
     1 ****        2 TEMP              0 ****  ****    0 ROOT 
@<TRIPOS>NORMAL
@<TRIPOS>FF_PBC
FORCE_FIELD_SETUP_FEATURE Force Field Setup information
v1.0  0 0.000000 0.000000 0.000000 0.000000 0.000000 0.000000 NONE 0 0 0 0 1 0 0 0 0 0 0 0 0
@<TRIPOS>RENDERING_ATTRS
ANTIALIASED_LINES 
*
