#	Name:			PISM00902.1
#	Creating user name:	baoopengkun
#	Creation time:		Fri Dec 14 10:23:48 2018

#	Modifying user name:	baoopengkun
#	Modification time:	Fri Dec 14 10:26:03 2018

@<TRIPOS>MOLECULE
PISM00902.1
   40    41     1     1     0
SMALL
GAST_HUCK


@<TRIPOS>ATOM
      1 C1         22.6237   19.7100   -9.9421 C.ar      1 <1>        -0.0509 
      2 C2         23.0800   20.8135   -9.2117 C.ar      1 <1>        -0.0739 
      3 C3         23.3024   20.7087   -7.8381 C.ar      1 <1>        -0.0820 
      4 C4         23.0423   19.5014   -7.1885 C.ar      1 <1>        -0.0736 
      5 C5         22.6015   18.3863   -7.9106 C.ar      1 <1>        -0.0459 
      6 C6         22.4838   18.4639   -9.3088 C.ar      1 <1>        -0.0426 
      7 C7         22.2100   17.2011  -10.1469 C.3       1 <1>        -0.0363 
      8 C8         22.2801   19.9055  -11.4275 C.3       1 <1>        -0.0353 
      9 C9         22.2570   17.1144   -7.1162 C.3       1 <1>        -0.0030 
     10 C10        23.5467   16.3158   -6.7984 C.3       1 <1>         0.0412 
     11 N11        23.1954   15.0724   -6.1159 N.am      1 <1>        -0.2605 
     12 C12        22.6984   14.0368   -6.8232 C.2       1 <1>         0.3248 
     13 O13        22.5262   14.0692   -8.0304 O.2       1 <1>        -0.3773 
     14 O14        22.4052   12.9753   -6.0621 O.3       1 <1>        -0.2139 
     15 C15        21.9244   11.8422   -6.8052 C.3       1 <1>         0.2419 
     16 C16        20.6834   12.1361   -7.6156 C.2       1 <1>        -0.0022 
     17 C17        20.8906   11.8318   -8.8957 C.2       1 <1>         0.0291 
     18 C18        22.2657   11.3403   -8.9187 C.2       1 <1>         0.2494 
     19 O19        22.8988   11.3560   -7.7508 O.3       1 <1>        -0.2315 
     20 C20        19.9299   11.9643  -10.0452 C.3       1 <1>        -0.0323 
     21 O21        22.8020   10.9365   -9.9365 O.2       1 <1>        -0.3691 
     22 H1         23.2656   21.7624   -9.7049 H         1 <1>         0.0482 
     23 H2         23.6715   21.5623   -7.2776 H         1 <1>         0.0525 
     24 H3         23.1863   19.4382   -6.1144 H         1 <1>         0.0482 
     25 H4         21.1238   17.0357  -10.2028 H         1 <1>         0.0361 
     26 H5         22.6866   16.3119   -9.7127 H         1 <1>         0.0361 
     27 H6         22.6094   17.2902  -11.1667 H         1 <1>         0.0361 
     28 H7         21.3685   19.3478  -11.6891 H         1 <1>         0.0374 
     29 H8         23.1190   19.5540  -12.0464 H         1 <1>         0.0374 
     30 H9         22.0959   20.9649  -11.6615 H         1 <1>         0.0374 
     31 H10        21.5307   16.4914   -7.6580 H         1 <1>         0.0429 
     32 H11        21.7737   17.3945   -6.1666 H         1 <1>         0.0429 
     33 H12        24.2077   16.9314   -6.1648 H         1 <1>         0.0540 
     34 H13        24.1011   16.0962   -7.7253 H         1 <1>         0.0540 
     35 H14        23.3018   15.0075   -5.1219 H         1 <1>         0.1869 
     36 H15        21.7022   11.0345   -6.0900 H         1 <1>         0.1194 
     37 H16        19.7574   12.5396   -7.2086 H         1 <1>         0.0704 
     38 H17        18.9923   11.4381   -9.8123 H         1 <1>         0.0347 
     39 H18        20.3643   11.5324  -10.9593 H         1 <1>         0.0347 
     40 H19        19.7137   13.0287  -10.2206 H         1 <1>         0.0347 
@<TRIPOS>BOND
     1    2    1 ar   
     2    2    3 ar   
     3    3    4 ar   
     4    4    5 ar   
     5    5    6 ar   
     6    1    6 ar   
     7    6    7 1    
     8    1    8 1    
     9    5    9 1    
    10    9   10 1    
    11   10   11 1    
    12   11   12 am   
    13   12   13 2    
    14   12   14 1    
    15   14   15 1    
    16   15   16 1    
    17   16   17 2    
    18   17   18 1    
    19   18   19 1    
    20   15   19 1    
    21   17   20 1    
    22   18   21 2    
    23    2   22 1    
    24    3   23 1    
    25    4   24 1    
    26    7   25 1    
    27    7   26 1    
    28    7   27 1    
    29    8   28 1    
    30    8   29 1    
    31    8   30 1    
    32    9   31 1    
    33    9   32 1    
    34   10   33 1    
    35   10   34 1    
    36   11   35 1    
    37   15   36 1    
    38   16   37 1    
    39   20   38 1    
    40   20   39 1    
    41   20   40 1    
@<TRIPOS>SUBSTRUCTURE
     1 ****        2 TEMP              0 ****  ****    0 ROOT 
@<TRIPOS>NORMAL
@<TRIPOS>FF_PBC
FORCE_FIELD_SETUP_FEATURE Force Field Setup information
v1.0  0 0.000000 0.000000 0.000000 0.000000 0.000000 0.000000 NONE 0 0 0 0 1 0 0 0 0 0 0 0 0
