#	Name:			PISM01138
#	Creating user name:	baoopengkun
#	Creation time:		Mon Dec 17 17:23:51 2018

#	Modifying user name:	baoopengkun
#	Modification time:	Mon Dec 17 17:25:01 2018

@<TRIPOS>MOLECULE
PISM01138
   24    25     1     1     0
SMALL
GAST_HUCK


@<TRIPOS>ATOM
      1 C1         23.1555   20.5242   -3.6108 C.ar      1 <1>        -0.0368 
      2 C2         22.2372   19.5076   -3.3398 C.ar      1 <1>        -0.0532 
      3 C3         22.6008   18.1786   -3.5335 C.ar      1 <1>        -0.0531 
      4 C4         23.8848   17.9000   -3.9978 C.ar      1 <1>        -0.0275 
      5 C5         24.8171   18.9092   -4.2722 C.ar      1 <1>         0.1224 
      6 C6         24.4631   20.2917   -4.0773 C.ar      1 <1>         0.0768 
      7 C7         25.2206   21.6274   -4.2708 C.2       1 <1>         0.1939 
      8 N8         26.4147   21.5822   -4.6879 N.2       1 <1>        -0.1943 
      9 S9         26.3762   18.1040   -4.8591 S.o2      1 <1>         0.0606 
     10 O10        26.2520   17.6128   -6.2170 O.2       1 <1>        -0.1578 
     11 O11        27.1052   17.4825   -3.7715 O.2       1 <1>        -0.1578 
     12 O12        24.6426   22.8122   -4.0086 O.3       1 <1>        -0.2669 
     13 C13        25.4890   23.9574   -4.2360 C.3       1 <1>         0.1094 
     14 C14        24.6678   25.1855   -3.9329 C.2       1 <1>        -0.0576 
     15 C15        25.0328   26.1195   -3.0455 C.2       1 <1>        -0.1148 
     16 H1         22.7958   21.5332   -3.4369 H         1 <1>         0.0694 
     17 H2         21.2410   19.7485   -2.9788 H         1 <1>         0.0636 
     18 H3         21.8982   17.3764   -3.3268 H         1 <1>         0.0675 
     19 H4         24.1610   16.8605   -4.1484 H         1 <1>         0.0656 
     20 H5         25.8051   24.0109   -5.2909 H         1 <1>         0.0813 
     21 H6         26.3855   23.9109   -3.5955 H         1 <1>         0.0813 
     22 H7         23.7274   25.3054   -4.4736 H         1 <1>         0.0700 
     23 H8         25.9615   26.0448   -2.4806 H         1 <1>         0.0291 
     24 H9         24.3990   26.9884   -2.8658 H         1 <1>         0.0291 
@<TRIPOS>BOND
     1    2    1 ar   
     2    2    3 ar   
     3    3    4 ar   
     4    4    5 ar   
     5    5    6 ar   
     6    1    6 ar   
     7    6    7 1    
     8    7    8 2    
     9    8    9 1    
    10    5    9 1    
    11    9   10 2    
    12    9   11 2    
    13    7   12 1    
    14   12   13 1    
    15   13   14 1    
    16   14   15 2    
    17    1   16 1    
    18    2   17 1    
    19    3   18 1    
    20    4   19 1    
    21   13   20 1    
    22   13   21 1    
    23   14   22 1    
    24   15   23 1    
    25   15   24 1    
@<TRIPOS>SUBSTRUCTURE
     1 ****        2 TEMP              0 ****  ****    0 ROOT 
@<TRIPOS>NORMAL
@<TRIPOS>FF_PBC
FORCE_FIELD_SETUP_FEATURE Force Field Setup information
v1.0  0 0.000000 0.000000 0.000000 0.000000 0.000000 0.000000 NONE 0 0 0 0 1 0 0 0 0 0 0 0 0
