#	Name:			PISM01193
#	Creating user name:	14062
#	Creation time:		Sat Apr 06 23:40:47 2019

#	Modifying user name:	14062
#	Modification time:	Sat Apr 06 23:43:10 2019

@<TRIPOS>MOLECULE
PISM01193
   43    44     1     1     0
SMALL
GAST_HUCK


@<TRIPOS>ATOM
      1 N1         -8.0243   15.6379   -1.6789 N.am      1 <1>        -0.1997 
      2 C2         -9.0752   14.8372   -1.4243 C.2       1 <1>         0.2049 
      3 C3         -9.2309   13.5562   -2.1971 C.3       1 <1>         0.0475 
      4 C4         -8.6404   13.6959   -3.6257 C.3       1 <1>        -0.0039 
      5 C5         -7.1734   14.1859   -3.4924 C.3       1 <1>         0.0475 
      6 C6         -7.0892   15.4128   -2.6219 C.2       1 <1>         0.2049 
      7 C7         -8.7763   12.3381   -4.3823 C.3       1 <1>        -0.0174 
      8 C8         -8.1602   12.3408   -5.8118 C.3       1 <1>         0.0741 
      9 C9         -8.6634   11.1556   -6.7017 C.3       1 <1>         0.0589 
     10 C10        -8.3936    9.7511   -6.0866 C.3       1 <1>        -0.0291 
     11 C11        -8.7995    8.5852   -7.0335 C.3       1 <1>        -0.0391 
     12 C12        -8.0935    8.7547   -8.4078 C.3       1 <1>        -0.0318 
     13 C13        -8.4153   10.1250   -9.0606 C.3       1 <1>         0.0303 
     14 C14        -8.0715   11.2313   -8.0912 C.2       1 <1>         0.1132 
     15 O15        -7.3472   12.1531   -8.4293 O.2       1 <1>        -0.3909 
     16 O16        -6.1648   16.1912   -2.7857 O.2       1 <1>        -0.3862 
     17 O17        -9.8995   15.1211   -0.5722 O.2       1 <1>        -0.3862 
     18 H1         -7.9350   16.4696   -1.1306 H         1 <1>         0.2256 
     19 H2        -10.2996   13.2941   -2.2508 H         1 <1>         0.0512 
     20 H3         -8.7077   12.7686   -1.6340 H         1 <1>         0.0512 
     21 H4         -9.2147   14.4701   -4.1652 H         1 <1>         0.0351 
     22 H5         -6.7686   14.4616   -4.4780 H         1 <1>         0.0512 
     23 H6         -6.5380   13.4027   -3.0526 H         1 <1>         0.0512 
     24 H7         -9.8504   12.1006   -4.4581 H         1 <1>         0.0297 
     25 H8         -8.2938   11.5467   -3.7881 H         1 <1>         0.0297 
     26 O26        -6.7240   12.4028   -5.7320 O.3       1 <1>        -0.3891 
     27 H10        -8.4745   13.2723   -6.3139 H         1 <1>         0.0622 
     28 H11        -9.7504   11.2859   -6.8212 H         1 <1>         0.0555 
     29 H12        -8.9328    9.6340   -5.1339 H         1 <1>         0.0296 
     30 H13        -7.3176    9.6459   -5.8837 H         1 <1>         0.0296 
     31 C31       -10.3413    8.4180   -7.1641 C.3       1 <1>        -0.0621 
     32 H15        -8.4301    7.6428   -6.5864 H         1 <1>         0.0301 
     33 H16        -8.3865    7.9348   -9.0837 H         1 <1>         0.0295 
     34 H17        -7.0033    8.6909   -8.2545 H         1 <1>         0.0295 
     35 H18        -9.4895   10.1968   -9.2908 H         1 <1>         0.0527 
     36 C36        -7.6509   10.2826  -10.4037 C.3       1 <1>        -0.0464 
     37 H9         -6.3134   11.6571   -5.3117 H         1 <1>         0.2100 
     38 H14       -10.8377    9.3068   -7.5752 H         1 <1>         0.0233 
     39 H19       -10.7823    8.2125   -6.1760 H         1 <1>         0.0233 
     40 H20       -10.5706    7.5649   -7.8223 H         1 <1>         0.0233 
     41 H21        -7.9266    9.4759  -11.1010 H         1 <1>         0.0257 
     42 H22        -6.5634   10.2467  -10.2349 H         1 <1>         0.0257 
     43 H23        -7.9000   11.2473  -10.8733 H         1 <1>         0.0257 
@<TRIPOS>BOND
     1    2    1 am   
     2    2    3 1    
     3    3    4 1    
     4    4    5 1    
     5    5    6 1    
     6    1    6 am   
     7    4    7 1    
     8    7    8 1    
     9    8    9 1    
    10    9   10 1    
    11   10   11 1    
    12   11   12 1    
    13   12   13 1    
    14   13   14 1    
    15    9   14 1    
    16   14   15 2    
    17    6   16 2    
    18    2   17 2    
    19    1   18 1    
    20    3   19 1    
    21    3   20 1    
    22    4   21 1    
    23    5   22 1    
    24    5   23 1    
    25    7   24 1    
    26    7   25 1    
    27    8   26 1    
    28    8   27 1    
    29    9   28 1    
    30   10   29 1    
    31   10   30 1    
    32   11   31 1    
    33   11   32 1    
    34   12   33 1    
    35   12   34 1    
    36   13   35 1    
    37   13   36 1    
    38   26   37 1    
    39   31   38 1    
    40   31   39 1    
    41   31   40 1    
    42   36   41 1    
    43   36   42 1    
    44   36   43 1    
@<TRIPOS>SUBSTRUCTURE
     1 ****        2 TEMP              0 ****  ****    0 ROOT 
@<TRIPOS>NORMAL
@<TRIPOS>FF_PBC
FORCE_FIELD_SETUP_FEATURE Force Field Setup information
v1.0  0 0.000000 0.000000 0.000000 0.000000 0.000000 0.000000 NONE 0 0 0 0 1 0 0 0 0 0 0 0 0
