#	Name:			PISM00940.1
#	Creating user name:	baoopengkun
#	Creation time:		Wed Dec 12 22:41:34 2018

#	Modifying user name:	baoopengkun
#	Modification time:	Wed Dec 12 23:11:37 2018

@<TRIPOS>MOLECULE
PISM00940.1
   20    20     1     1     0
SMALL
GAST_HUCK


@<TRIPOS>ATOM
      1 C1          4.1525   -4.8681    4.9861 C.3       1 <1>        -0.0415 
      2 C2          3.2643   -5.8307    5.7267 C.2       1 <1>         0.0198 
      3 C3          3.5930   -6.7467    6.6362 C.2       1 <1>        -0.0048 
      4 C4          2.3845   -7.5119    7.1246 C.3       1 <1>         0.1493 
      5 O5          1.2815   -6.9209    6.4032 O.3       1 <1>        -0.2517 
      6 C6          1.8173   -5.9888    5.6209 C.2       1 <1>         0.2326 
      7 C7          4.9613   -7.0656    7.1832 C.3       1 <1>        -0.0234 
      8 H1          4.9307   -5.4220    4.4404 H         1 <1>         0.0306 
      9 O9          1.1363   -5.3120    4.8697 O.2       1 <1>        -0.3815 
     10 C10         2.5311   -8.9850    6.8289 C.2       1 <1>        -0.0425 
     11 C11         1.8976   -9.6063    5.8264 C.2       1 <1>        -0.1117 
     12 H2          4.6287   -4.1776    5.6980 H         1 <1>         0.0306 
     13 H3          3.5620   -4.2833    4.2651 H         1 <1>         0.0306 
     14 H4          2.2233   -7.3478    8.2020 H         1 <1>         0.1024 
     15 H5          5.2619   -8.0774    6.8734 H         1 <1>         0.0428 
     16 H6          4.9430   -7.0173    8.2821 H         1 <1>         0.0428 
     17 H7          5.7134   -6.3521    6.8156 H         1 <1>         0.0428 
     18 H8          3.1938   -9.5694    7.4692 H         1 <1>         0.0721 
     19 H9          1.2273   -9.0764    5.1504 H         1 <1>         0.0304 
     20 H10         2.0408  -10.6742    5.6591 H         1 <1>         0.0304 
@<TRIPOS>BOND
     1    2    1 1    
     2    2    3 2    
     3    3    4 1    
     4    4    5 1    
     5    5    6 1    
     6    2    6 1    
     7    3    7 1    
     8    1    8 1    
     9    6    9 2    
    10    4   10 1    
    11   10   11 2    
    12    1   12 1    
    13    1   13 1    
    14    4   14 1    
    15    7   15 1    
    16    7   16 1    
    17    7   17 1    
    18   10   18 1    
    19   11   19 1    
    20   11   20 1    
@<TRIPOS>SUBSTRUCTURE
     1 ****        2 TEMP              0 ****  ****    0 ROOT 
@<TRIPOS>NORMAL
@<TRIPOS>FF_PBC
FORCE_FIELD_SETUP_FEATURE Force Field Setup information
v1.0  0 0.000000 0.000000 0.000000 0.000000 0.000000 0.000000 NONE 0 0 0 0 1 0 0 0 0 0 0 0 0
