#	Name:			PISM00543
#	Creating user name:	malab
#	Creation time:		Fri Apr 05 22:36:15 2019

#	Modifying user name:	malab
#	Modification time:	Fri Apr 05 22:37:14 2019

@<TRIPOS>MOLECULE
PISM00543
   42    45     1     1     0
SMALL
USER_CHARGES


@<TRIPOS>ATOM
      1 C1         24.4169    6.7851   -5.5037 C.ar      1 <1>         0.0000 
      2 C2         25.6582    7.4238   -5.4481 C.ar      1 <1>         0.0000 
      3 C3         25.7666    8.7748   -5.7933 C.ar      1 <1>         0.0000 
      4 C4         24.6385    9.4995   -6.1973 C.ar      1 <1>         0.0000 
      5 C5         23.4005    8.8468   -6.2671 C.ar      1 <1>         0.0000 
      6 C6         23.2883    7.4981   -5.9176 C.ar      1 <1>         0.0000 
      7 C7         24.7687   10.9901   -6.5622 C.3       1 <1>         0.0000 
      8 C8         23.5283   11.7595   -6.1663 C.2       1 <1>         0.0000 
      9 C9         22.8811   12.6907   -6.8729 C.2       1 <1>         0.0000 
     10 O10        23.0285   11.4691   -4.9595 O.3       1 <1>         0.0000 
     11 C11        21.9705   12.2833   -4.9190 C.2       1 <1>         0.0000 
     12 C12        21.7763   13.0544   -5.9901 C.2       1 <1>         0.0000 
     13 C13        25.1991   11.1341   -8.0506 C.3       1 <1>         0.0000 
     14 C14        24.2340   10.4230   -9.0404 C.3       1 <1>         0.0000 
     15 N15        24.5318   10.5953  -10.4614 N.am      1 <1>         0.0000 
     16 C16        25.5943   11.2383  -11.0048 C.2       1 <1>         0.0000 
     17 O17        26.5113   11.8032  -10.4326 O.2       1 <1>         0.0000 
     18 C18        25.5101   11.1682  -12.5093 C.ar      1 <1>         0.0000 
     19 C19        24.3625   10.4435  -12.7938 C.ar      1 <1>         0.0000 
     20 C20        23.7622   10.0959  -11.4548 C.2       1 <1>         0.0000 
     21 O21        22.7326    9.4545  -11.3246 O.2       1 <1>         0.0000 
     22 C22        23.9746   10.1717  -14.1057 C.ar      1 <1>         0.0000 
     23 C23        24.7889   10.6665  -15.1322 C.ar      1 <1>         0.0000 
     24 C24        25.9454   11.4076  -14.8447 C.ar      1 <1>         0.0000 
     25 C25        26.3260   11.6698  -13.5224 C.ar      1 <1>         0.0000 
     26 H1         24.3295    5.7387   -5.2267 H         1 <1>         0.0000 
     27 H2         26.5390    6.8706   -5.1365 H         1 <1>         0.0000 
     28 H3         26.7372    9.2586   -5.7468 H         1 <1>         0.0000 
     29 H4         22.5134    9.3781   -6.5970 H         1 <1>         0.0000 
     30 H5         22.3231    7.0038   -5.9681 H         1 <1>         0.0000 
     31 H6         25.5662   11.4275   -5.9384 H         1 <1>         0.0000 
     32 H7         23.0831   13.1079   -7.8577 H         1 <1>         0.0000 
     33 H8         21.3073   12.3107   -4.0550 H         1 <1>         0.0000 
     34 H9         20.9852   13.7820   -6.1693 H         1 <1>         0.0000 
     35 H10        26.2005   10.6865   -8.1651 H         1 <1>         0.0000 
     36 H11        25.2756   12.2051   -8.2958 H         1 <1>         0.0000 
     37 H12        23.2080   10.7798   -8.8652 H         1 <1>         0.0000 
     38 H13        24.2483    9.3406   -8.8397 H         1 <1>         0.0000 
     39 H14        23.0776    9.5996  -14.3169 H         1 <1>         0.0000 
     40 H15        24.5202   10.4730  -16.1664 H         1 <1>         0.0000 
     41 H16        26.5565   11.7845  -15.6596 H         1 <1>         0.0000 
     42 H17        27.2186   12.2404  -13.2891 H         1 <1>         0.0000 
@<TRIPOS>BOND
     1    2    1 ar   
     2    2    3 ar   
     3    3    4 ar   
     4    4    5 ar   
     5    5    6 ar   
     6    1    6 ar   
     7    4    7 1    
     8    7    8 1    
     9    8    9 2    
    10    8   10 1    
    11   10   11 1    
    12   11   12 2    
    13    9   12 1    
    14    7   13 1    
    15   13   14 1    
    16   14   15 1    
    17   15   16 am   
    18   16   17 2    
    19   16   18 1    
    20   18   19 ar   
    21   19   20 1    
    22   15   20 am   
    23   20   21 2    
    24   19   22 ar   
    25   22   23 ar   
    26   23   24 ar   
    27   24   25 ar   
    28   18   25 ar   
    29    1   26 1    
    30    2   27 1    
    31    3   28 1    
    32    5   29 1    
    33    6   30 1    
    34    7   31 1    
    35    9   32 1    
    36   11   33 1    
    37   12   34 1    
    38   13   35 1    
    39   13   36 1    
    40   14   37 1    
    41   14   38 1    
    42   22   39 1    
    43   23   40 1    
    44   24   41 1    
    45   25   42 1    
@<TRIPOS>SUBSTRUCTURE
     1 ****        2 TEMP              0 ****  ****    0 ROOT 
@<TRIPOS>NORMAL
@<TRIPOS>FF_PBC
FORCE_FIELD_SETUP_FEATURE Force Field Setup information
v1.0  0 0.000000 0.000000 0.000000 0.000000 0.000000 0.000000 NONE 0 0 0 0 0 0 0 0 0 0 0 0 0
