#	Name:			PISM00616
#	Creating user name:	baoopengkun
#	Creation time:		Mon Dec 10 10:36:27 2018

#	Modifying user name:	baoopengkun
#	Modification time:	Mon Dec 10 10:36:42 2018

@<TRIPOS>MOLECULE
PISM00616
   48    51     1     2     0
SMALL
GAST_HUCK


@<TRIPOS>ATOM
      1 C1         -3.7949    8.1754   -8.7066 C.ar      1 <1>        -0.0348 
      2 C2         -4.7360    8.0421   -9.7317 C.ar      1 <1>        -0.0180 
      3 C3         -5.2859    6.7898  -10.0193 C.ar      1 <1>         0.0714 
      4 C4         -4.9029    5.6718   -9.2735 C.ar      1 <1>        -0.0180 
      5 C5         -3.9626    5.8058   -8.2482 C.ar      1 <1>        -0.0348 
      6 C6         -3.3908    7.0535   -7.9757 C.ar      1 <1>         0.0068 
      7 C7         -2.3251    7.1758   -6.8777 C.3       1 <1>         0.1921 
      8 C8         -3.0237    7.3438   -5.5055 C.3       1 <1>         0.1073 
      9 N9         -2.1442    7.4394   -4.3478 N.pl3     1 <1>        -0.1814 
     10 N10        -2.5454    7.5731   -3.0520 N.2       1 <1>        -0.1908 
     11 C11        -1.5704    7.6316   -2.2233 C.2       1 <1>         0.0618 
     12 N12        -0.4520    7.5206   -3.1181 N.2       1 <1>        -0.2870 
     13 C13        -0.8461    7.4145   -4.3053 C.2       1 <1>         0.1270 
     14 O14        -1.3842    8.2277   -7.1284 O.3       1 <1>        -0.3814 
     15 C15        -0.5235    7.7749   -8.1788 C.3       1 <1>         0.0672 
     16 C16        -0.4841    6.2422   -7.9441 C.3       1 <1>         0.1000 
     17 O17        -1.4561    6.0377   -6.9044 O.3       1 <1>        -0.3758 
     18 C18        -0.7846    5.4284   -9.2304 C.3       1 <1>         0.0952 
     19 O19        -0.8682    4.0294   -8.9062 O.3       1 <1>        -0.3192 
     20 C20        -1.1970    3.2078   -9.9868 C.ar      1 <1>         0.1198 
     21 C21        -2.4646    2.6222  -10.0409 C.ar      1 <1>        -0.0415 
     22 C22        -2.8279    1.8269  -11.1314 C.ar      1 <1>        -0.0819 
     23 C23        -1.9162    1.6093  -12.1683 C.ar      1 <1>        -0.0819 
     24 C24        -0.6407    2.1780  -12.1054 C.ar      1 <1>        -0.0415 
     25 C25        -0.2740    2.9680  -11.0126 C.ar      1 <1>         0.1194 
     26 Cl26       -6.4548    6.6211  -11.3128 Cl        1 <1>        -0.0420 
     27 H1         -3.3781    9.1517   -8.4788 H         1 <1>         0.0849 
     28 H2         -5.0416    8.9107  -10.3062 H         1 <1>         0.0703 
     29 H3         -5.3357    4.7009   -9.4924 H         1 <1>         0.0703 
     30 H4         -3.6714    4.9373   -7.6649 H         1 <1>         0.0849 
     31 H5         -3.6880    6.4834   -5.3372 H         1 <1>         0.0595 
     32 H6         -3.6313    8.2603   -5.5336 H         1 <1>         0.0595 
     33 H7         -1.5867    7.7365   -1.1396 H         1 <1>         0.0863 
     34 H8         -0.1608    7.3174   -5.1448 H         1 <1>         0.1361 
     35 H9          0.4637    8.2567   -8.1062 H         1 <1>         0.0576 
     36 H10        -0.9758    8.0340   -9.1487 H         1 <1>         0.0576 
     37 H11         0.4864    5.9159   -7.5361 H         1 <1>         0.0635 
     38 H12         0.0210    5.6134   -9.9583 H         1 <1>         0.0635 
     39 H13        -1.7347    5.7531   -9.6789 H         1 <1>         0.0635 
     40 H40        -3.1661    2.7896   -9.2308 H         1 <1>         0.0509 
     41 H41        -3.8162    1.3792  -11.1730 H         1 <1>         0.0495 
     42 H42        -2.1977    0.9988  -13.0210 H         1 <1>         0.0495 
     43 H43         0.0726    2.0082  -12.9051 H         1 <1>         0.0509 
     44 O44         1.0121    3.5117  -10.9594 O.3       1 <1>        -0.3250 
     45 C45         1.8724    2.9044   -9.9815 C.3       1 <1>         0.0569 
     46 H16         1.4814    3.0305   -8.9604 H         1 <1>         0.0573 
     47 H14         2.8565    3.3917  -10.0412 H         1 <1>         0.0573 
     48 H15         1.9968    1.8308  -10.1926 H         1 <1>         0.0573 
@<TRIPOS>BOND
     1    2    1 ar   
     2    2    3 ar   
     3    3    4 ar   
     4    4    5 ar   
     5    5    6 ar   
     6    1    6 ar   
     7    6    7 1    
     8    7    8 1    
     9    8    9 1    
    10    9   10 1    
    11   10   11 2    
    12   11   12 1    
    13   12   13 2    
    14    9   13 1    
    15    7   14 1    
    16   14   15 1    
    17   15   16 1    
    18   16   17 1    
    19    7   17 1    
    20   16   18 1    
    21   18   19 1    
    22   19   20 1    
    23   20   21 ar   
    24   21   22 ar   
    25   22   23 ar   
    26   23   24 ar   
    27   24   25 ar   
    28   20   25 ar   
    29    3   26 1    
    30    1   27 1    
    31    2   28 1    
    32    4   29 1    
    33    5   30 1    
    34    8   31 1    
    35    8   32 1    
    36   11   33 1    
    37   13   34 1    
    38   15   35 1    
    39   15   36 1    
    40   16   37 1    
    41   18   38 1    
    42   18   39 1    
    43   21   40 1    
    44   22   41 1    
    45   23   42 1    
    46   24   43 1    
    47   25   44 1    
    48   44   45 1    
    49   45   46 1    
    50   45   47 1    
    51   45   48 1    
@<TRIPOS>SUBSTRUCTURE
     1 ****        2 TEMP              0 ****  ****    0 ROOT 
@<TRIPOS>NORMAL
@<TRIPOS>FF_PBC
FORCE_FIELD_SETUP_FEATURE Force Field Setup information
v1.0  0 0.000000 0.000000 0.000000 0.000000 0.000000 0.000000 NONE 0 0 0 0 1 0 0 0 0 0 0 0 0
@<TRIPOS>RENDERING_ATTRS
ANTIALIASED_LINES 
*
