#	Name:			PISM00172
#	Creating user name:	14062
#	Creation time:		Sun Mar 31 15:38:02 2019

#	Modifying user name:	14062
#	Modification time:	Sun Mar 31 15:47:23 2019

@<TRIPOS>MOLECULE
PISM00172
   26    27     1     1     0
SMALL
GAST_HUCK


@<TRIPOS>ATOM
      1 C1         -0.1190    8.1875  -10.0617 C.ar      1 <1>        -0.0533 
      2 C2          0.7118    7.0692  -10.1829 C.ar      1 <1>        -0.0500 
      3 C3          0.7872    6.1207   -9.1539 C.ar      1 <1>         0.0180 
      4 C4          0.0106    6.3144   -8.0045 C.ar      1 <1>        -0.0500 
      5 C5         -0.8224    7.4301   -7.8803 C.ar      1 <1>        -0.0533 
      6 C6         -0.8884    8.3708   -8.9105 C.ar      1 <1>         0.0113 
      7 C7          1.6736    4.8918   -9.2305 C.2       1 <1>         0.1314 
      8 C8          2.4857    4.5997  -10.2506 C.2       1 <1>        -0.0395 
      9 C9          3.0998    3.3393   -9.8394 C.2       1 <1>        -0.0403 
     10 C10         2.5494    3.0974   -8.6468 C.2       1 <1>         0.1264 
     11 O11         1.6717    4.0115   -8.2237 O.3       1 <1>        -0.2485 
     12 C12         2.8354    1.9272   -7.7921 C.2       1 <1>        -0.0124 
     13 C13         3.6717    0.9198   -8.0766 C.2       1 <1>         0.0146 
     14 C14         3.9060   -0.2187   -7.1688 C.2       1 <1>         0.2379 
     15 O15         3.3252   -0.2754   -6.0963 O.2       1 <1>        -0.3699 
     16 O16         4.7545   -1.1834   -7.5260 O.3       1 <1>        -0.2981 
     17 Br17       -1.9898    9.8520   -8.7508 Br        1 <1>        -0.0510 
     18 H1         -0.1677    8.9169  -10.8642 H         1 <1>         0.0638 
     19 H2          1.2912    6.9580  -11.0907 H         1 <1>         0.0620 
     20 H3          0.0477    5.5953   -7.1922 H         1 <1>         0.0620 
     21 H4         -1.4184    7.5663   -6.9833 H         1 <1>         0.0638 
     22 H5          2.6899    5.1213  -11.1830 H         1 <1>         0.0441 
     23 H6          3.8313    2.7694  -10.4092 H         1 <1>         0.0478 
     24 H7          2.2993    1.9074   -6.8430 H         1 <1>         0.0740 
     25 H8          4.2282    0.8948   -9.0109 H         1 <1>         0.0583 
     26 H9          4.8179   -1.8567   -6.8574 H         1 <1>         0.2510 
@<TRIPOS>BOND
     1    2    1 ar   
     2    2    3 ar   
     3    3    4 ar   
     4    4    5 ar   
     5    5    6 ar   
     6    1    6 ar   
     7    3    7 1    
     8    7    8 2    
     9    8    9 1    
    10    9   10 2    
    11   10   11 1    
    12    7   11 1    
    13   10   12 1    
    14   12   13 2    
    15   13   14 1    
    16   14   15 2    
    17   14   16 1    
    18    6   17 1    
    19    1   18 1    
    20    2   19 1    
    21    4   20 1    
    22    5   21 1    
    23    8   22 1    
    24    9   23 1    
    25   12   24 1    
    26   13   25 1    
    27   16   26 1    
@<TRIPOS>SUBSTRUCTURE
     1 ****        2 TEMP              0 ****  ****    0 ROOT 
@<TRIPOS>NORMAL
@<TRIPOS>FF_PBC
FORCE_FIELD_SETUP_FEATURE Force Field Setup information
v1.0  0 0.000000 0.000000 0.000000 0.000000 0.000000 0.000000 NONE 0 0 0 0 1 0 0 0 0 0 0 0 0
