#	Name:			PISM00147.3
#	Creating user name:	14062
#	Creation time:		Sat Oct 19 22:24:58 2019

#	Modifying user name:	14062
#	Modification time:	Sat Oct 19 22:34:13 2019

@<TRIPOS>MOLECULE
PISM00147.3
   31    32     2     1     0
SMALL
GAST_HUCK


@<TRIPOS>ATOM
      1 C1          1.9797    2.7791    6.2520 C.3       1 BENZYL      0.1325 
      2 C1          3.1575    2.3053    5.3281 C.3       1 BENZYL      0.2383 
      3 C2          2.6766    2.7269    3.9390 C.ar      1 BENZYL      0.0221 
      4 C3          1.4935    3.4362    4.0654 C.ar      1 BENZYL      0.0410 
      5 C4          0.8263    3.9611    2.9584 C.ar      1 BENZYL     -0.0523 
      6 C5          1.3952    3.7478    1.6971 C.ar      1 BENZYL     -0.0471 
      7 C6          2.5884    3.0252    1.5622 C.ar      1 BENZYL      0.1115 
      8 C7          3.2484    2.5108    2.6840 C.ar      1 BENZYL     -0.0345 
      9 N9          1.1171    3.5324    5.3517 N.pl3     1 BENZYL     -0.3117 
     10 F10         3.1012    2.8209    0.3535 F         1 BENZYL     -0.1964 
     11 N           3.4763    0.8953    5.4316 N.2       2 NO          0.1721 
     12 O           3.8056    0.4234    6.5225 O.2       2 NO          0.0926 
     13 O13         3.4659    0.0585    4.2991 O.3       2 NO         -0.0551 
     14 S14         1.0552    1.3836    6.9841 S.3       1 BENZYL     -0.1056 
     15 C15        -0.3757    1.1407    5.8738 C.3       1 BENZYL      0.0970 
     16 C16         0.0726    0.7714    4.4872 C.2       1 BENZYL      0.2436 
     17 O17         1.0893    0.1184    4.2990 O.2       1 BENZYL     -0.3695 
     18 O18        -0.7226    1.1954    3.4970 O.3       1 BENZYL     -0.2796 
     19 C19        -0.3389    0.7202    2.1916 C.3       1 BENZYL      0.0658 
     20 H1          2.3438    3.4158    7.0761 H         1 BENZYL      0.0721 
     21 H2          4.0676    2.8927    5.5318 H         1 BENZYL      0.0954 
     22 H3         -0.1007    4.5127    3.0737 H         1 BENZYL      0.0485 
     23 H4          0.9092    4.1430    0.8111 H         1 BENZYL      0.0513 
     24 H5          4.1790    1.9654    2.5745 H         1 BENZYL      0.0509 
     25 H6          0.3604    4.1576    5.6755 H         1 BENZYL      0.1735 
     26 H7          2.5808   -0.2745    4.1437 H         2 NO          0.4439 
     27 H8         -1.0010    2.0450    5.8576 H         1 BENZYL      0.0633 
     28 H9         -0.9776    0.3093    6.2678 H         1 BENZYL      0.0633 
     29 H10        -0.4099   -0.3779    2.1377 H         1 BENZYL      0.0577 
     30 H11         0.6808    1.0310    1.9202 H         1 BENZYL      0.0577 
     31 H12        -1.0378    1.1495    1.4585 H         1 BENZYL      0.0577 
@<TRIPOS>BOND
     1    2    3 1    
     2    3    4 ar   
     3    3    8 ar   
     4    8    7 ar   
     5    7    6 ar   
     6    6    5 ar   
     7    5    4 ar   
     8    2    1 1    
     9    1    9 1    
    10    4    9 1    
    11    7   10 1    
    12   11   12 2    
    13    2   11 1    
    14   11   13 1    
    15    1   14 1    
    16   14   15 1    
    17   15   16 1    
    18   16   17 2    
    19   16   18 1    
    20   18   19 1    
    21    1   20 1    
    22    2   21 1    
    23    5   22 1    
    24    6   23 1    
    25    8   24 1    
    26    9   25 1    
    27   13   26 1    
    28   15   27 1    
    29   15   28 1    
    30   19   29 1    
    31   19   30 1    
    32   19   31 1    
@<TRIPOS>SUBSTRUCTURE
     1 BENZYL      2 PERM              0 ****  ****    1 ROOT 
     2 NO         11 PERM              0 ****  ****    1  
@<TRIPOS>NORMAL
@<TRIPOS>FF_PBC
FORCE_FIELD_SETUP_FEATURE Force Field Setup information
v1.0  0 0.000000 0.000000 0.000000 0.000000 0.000000 0.000000 NONE 0 0 0 0 1 0 0 0 0 0 0 0 0
