#	Name:			PISM00718
#	Creating user name:	baoopengkun
#	Creation time:		Sun Jan 20 21:34:04 2019

#	Modifying user name:	baoopengkun
#	Modification time:	Sun Jan 20 21:48:54 2019

@<TRIPOS>MOLECULE
PISM00718
   85    88     1     1     0
SMALL
GAST_HUCK


@<TRIPOS>ATOM
      1 C1          0.3990   -0.3827    0.4743 C.3       1 <1>        -0.0163 
      2 C2         -0.0244   -1.8655    0.6890 C.3       1 <1>         0.0819 
      3 C3          0.6057   -2.4875    1.9674 C.3       1 <1>         0.0835 
      4 C4          0.3811   -1.5859    3.2136 C.3       1 <1>        -0.0028 
      5 C5          0.8419   -0.1236    2.9440 C.3       1 <1>         0.0681 
      6 C6          0.1309    0.5362    1.7104 C.3       1 <1>        -0.0055 
      7 C7          0.6794    2.0035    1.4830 C.3       1 <1>        -0.0276 
      8 C8          2.1983    2.1709    1.8146 C.3       1 <1>        -0.0063 
      9 C9          2.4319    2.2109    3.3651 C.3       1 <1>         0.0801 
     10 O10         1.3119    1.9482    4.2444 O.3       1 <1>        -0.2763 
     11 C11         0.6706    0.7707    4.1456 C.2       1 <1>         0.2374 
     12 O12        -0.0822    0.4400    5.0460 O.2       1 <1>        -0.3701 
     13 C13         0.3664    2.6277    0.0882 C.3       1 <1>        -0.0487 
     14 C14         0.6526    4.1661    0.0624 C.3       1 <1>        -0.0468 
     15 C15         1.9628    4.6097    0.8075 C.3       1 <1>        -0.0257 
     16 C16         2.8383    3.3388    0.9857 C.3       1 <1>        -0.0298 
     17 C17         4.2586    3.8366    1.3491 C.3       1 <1>        -0.0491 
     18 C18         4.3442    5.2157    0.6325 C.3       1 <1>        -0.0491 
     19 C19         2.9550    5.4995   -0.0272 C.3       1 <1>        -0.0304 
     20 O20         0.3034   -2.6561   -0.4663 O.3       1 <1>        -0.3892 
     21 O21         1.9937   -2.8263    1.7752 O.3       1 <1>        -0.3891 
     22 C22         6.1654   10.1616   -1.0026 C.3       1 <1>        -0.0327 
     23 C23        -1.4146    0.6421    1.9674 C.3       1 <1>        -0.0568 
     24 C24         1.6328    5.3071    2.1667 C.3       1 <1>        -0.0590 
     25 C25         2.6692    7.0362   -0.2071 C.3       1 <1>        -0.0120 
     26 C26         3.8214    7.7120   -1.0360 C.3       1 <1>         0.0841 
     27 C27         3.6264    9.2389   -1.3247 C.3       1 <1>         0.0843 
     28 C28         4.8362   10.0968   -1.8680 C.3       1 <1>        -0.0105 
     29 C29         5.8648   10.2378    0.5265 C.3       1 <1>        -0.0597 
     30 C30         7.0200   11.4307   -1.3425 C.3       1 <1>        -0.0597 
     31 C31         7.1277    8.9646   -1.3139 C.3       1 <1>        -0.0597 
     32 C32         1.2707    7.2966   -0.8368 C.3       1 <1>        -0.0597 
     33 O33         4.0042    6.9836   -2.2667 O.3       1 <1>        -0.3890 
     34 O34         2.5585    9.3360   -2.2867 O.3       1 <1>        -0.3889 
     35 C35         4.2653   11.5251   -2.1693 C.3       1 <1>        -0.0595 
     36 H1         -0.1606   -0.0207   -0.4020 H         1 <1>         0.0298 
     37 H2          1.4673   -0.3556    0.2165 H         1 <1>         0.0298 
     38 H3         -1.1210   -1.9320    0.7605 H         1 <1>         0.0619 
     39 H4          0.1191   -3.4618    2.1478 H         1 <1>         0.0621 
     40 H5          0.9627   -2.0087    4.0505 H         1 <1>         0.0319 
     41 H6         -0.6735   -1.6218    3.5215 H         1 <1>         0.0319 
     42 H7          1.9194   -0.2462    2.7981 H         1 <1>         0.0560 
     43 H8          0.1380    2.6581    2.1803 H         1 <1>         0.0311 
     44 H9          2.7392    1.2927    1.4255 H         1 <1>         0.0332 
     45 H10         2.6803    3.2286    3.6844 H         1 <1>         0.0616 
     46 H11         3.2887    1.5806    3.6569 H         1 <1>         0.0616 
     47 H12        -0.6872    2.4890   -0.1968 H         1 <1>         0.0268 
     48 H13         0.9624    2.1153   -0.6830 H         1 <1>         0.0268 
     49 H14        -0.2156    4.6662    0.5223 H         1 <1>         0.0271 
     50 H15         0.6778    4.4665   -0.9972 H         1 <1>         0.0271 
     51 H16         2.9873    2.9471   -0.0394 H         1 <1>         0.0310 
     52 H17         5.0371    3.1333    1.0055 H         1 <1>         0.0268 
     53 H18         4.4043    3.9722    2.4297 H         1 <1>         0.0268 
     54 H19         5.1476    5.2106   -0.1240 H         1 <1>         0.0268 
     55 H20         4.5864    5.9913    1.3781 H         1 <1>         0.0268 
     56 H21         2.9864    5.0758   -1.0457 H         1 <1>         0.0310 
     57 H22         1.2429   -2.7393   -0.5952 H         1 <1>         0.2099 
     58 H23         2.5644   -2.0989    1.5597 H         1 <1>         0.2099 
     59 H24        -1.9104   -0.3151    2.1569 H         1 <1>         0.0237 
     60 H25        -1.9345    1.0825    1.1069 H         1 <1>         0.0237 
     61 H26        -1.6271    1.2749    2.8424 H         1 <1>         0.0237 
     62 H27         1.0188    4.6761    2.8193 H         1 <1>         0.0235 
     63 H28         1.0536    6.2254    2.0006 H         1 <1>         0.0235 
     64 H29         2.5394    5.5856    2.7208 H         1 <1>         0.0235 
     65 H30         2.6643    7.5097    0.7891 H         1 <1>         0.0327 
     66 H31         4.7017    7.5949   -0.4033 H         1 <1>         0.0622 
     67 H32         3.2679    9.7198   -0.4008 H         1 <1>         0.0622 
     68 H33         5.1119    9.6899   -2.8541 H         1 <1>         0.0329 
     69 H34         5.3865    9.3300    0.9124 H         1 <1>         0.0235 
     70 H35         5.2067   11.0906    0.7491 H         1 <1>         0.0235 
     71 H36         6.7966   10.3743    1.0968 H         1 <1>         0.0235 
     72 H37         7.2299   11.4853   -2.4220 H         1 <1>         0.0235 
     73 H38         6.5254   12.3614   -1.0269 H         1 <1>         0.0235 
     74 H39         7.9907   11.4133   -0.8226 H         1 <1>         0.0235 
     75 H40         6.7102    7.9725   -1.1333 H         1 <1>         0.0235 
     76 H41         8.0387    9.0299   -0.6990 H         1 <1>         0.0235 
     77 H42         7.4370    8.9927   -2.3702 H         1 <1>         0.0235 
     78 H43         1.2481    6.9397   -1.8776 H         1 <1>         0.0233 
     79 H44         1.0130    8.3646   -0.8128 H         1 <1>         0.0233 
     80 H45         0.4719    6.7994   -0.2775 H         1 <1>         0.0233 
     81 H46         4.7715    7.2519   -2.7609 H         1 <1>         0.2099 
     82 H47         2.7565    8.8786   -3.0984 H         1 <1>         0.2099 
     83 H48         4.9535   12.1346   -2.7721 H         1 <1>         0.0233 
     84 H49         4.0455   12.0573   -1.2320 H         1 <1>         0.0233 
     85 H50         3.3352   11.4952   -2.7550 H         1 <1>         0.0233 
@<TRIPOS>BOND
     1    2    1 1    
     2    2    3 1    
     3    3    4 1    
     4    4    5 1    
     5    5    6 1    
     6    1    6 1    
     7    6    7 1    
     8    7    8 1    
     9    8    9 1    
    10    9   10 1    
    11   10   11 1    
    12   11   12 2    
    13    5   11 1    
    14    7   13 1    
    15   13   14 1    
    16   14   15 1    
    17   15   16 1    
    18    8   16 1    
    19   16   17 1    
    20   17   18 1    
    21   18   19 1    
    22   15   19 1    
    23    2   20 1    
    24    3   21 1    
    25   28   22 1    
    26    6   23 1    
    27   15   24 1    
    28   19   25 1    
    29   25   26 1    
    30   26   27 1    
    31   27   28 1    
    32   22   29 1    
    33   22   30 1    
    34   22   31 1    
    35   25   32 1    
    36   26   33 1    
    37   27   34 1    
    38   28   35 1    
    39    1   36 1    
    40    1   37 1    
    41    2   38 1    
    42    3   39 1    
    43    4   40 1    
    44    4   41 1    
    45    5   42 1    
    46    7   43 1    
    47    8   44 1    
    48    9   45 1    
    49    9   46 1    
    50   13   47 1    
    51   13   48 1    
    52   14   49 1    
    53   14   50 1    
    54   16   51 1    
    55   17   52 1    
    56   17   53 1    
    57   18   54 1    
    58   18   55 1    
    59   19   56 1    
    60   20   57 1    
    61   21   58 1    
    62   23   59 1    
    63   23   60 1    
    64   23   61 1    
    65   24   62 1    
    66   24   63 1    
    67   24   64 1    
    68   25   65 1    
    69   26   66 1    
    70   27   67 1    
    71   28   68 1    
    72   29   69 1    
    73   29   70 1    
    74   29   71 1    
    75   30   72 1    
    76   30   73 1    
    77   30   74 1    
    78   31   75 1    
    79   31   76 1    
    80   31   77 1    
    81   32   78 1    
    82   32   79 1    
    83   32   80 1    
    84   33   81 1    
    85   34   82 1    
    86   35   83 1    
    87   35   84 1    
    88   35   85 1    
@<TRIPOS>SUBSTRUCTURE
     1 ****        2 TEMP              0 ****  ****    0 ROOT 
@<TRIPOS>NORMAL
@<TRIPOS>FF_PBC
FORCE_FIELD_SETUP_FEATURE Force Field Setup information
v1.0  0 0.000000 0.000000 0.000000 0.000000 0.000000 0.000000 NONE 0 0 0 0 1 0 0 0 0 0 0 0 0
