#	Name:			PISM00080
#	Creating user name:	baoopengkun
#	Creation time:		Thu Dec 27 12:21:27 2018

#	Modifying user name:	baoopengkun
#	Modification time:	Thu Dec 27 12:23:27 2018

@<TRIPOS>MOLECULE
PISM00080
   47    49     1     1     0
SMALL
GAST_HUCK


@<TRIPOS>ATOM
      1 C1          7.6970    2.7182  -23.7886 C.3       1 <1>        -0.0305 
      2 C2          6.6192    3.2899  -22.8597 C.ar      1 <1>        -0.0480 
      3 C3          5.2825    3.3721  -23.2624 C.ar      1 <1>        -0.0614 
      4 C4          4.3148    3.8537  -22.3771 C.ar      1 <1>        -0.0542 
      5 C5          4.6693    4.2572  -21.0855 C.ar      1 <1>         0.0517 
      6 C6          6.0216    4.2781  -20.7146 C.ar      1 <1>        -0.0315 
      7 C7          6.9774    3.7419  -21.5856 C.ar      1 <1>        -0.0535 
      8 C8          3.5631    4.6610  -20.1322 C.2       1 <1>         0.2321 
      9 O9          2.7276    5.4293  -20.5751 O.2       1 <1>        -0.3764 
     10 N10         3.5310    4.1637  -18.8726 N.am      1 <1>        -0.1936 
     11 C11         2.6446    4.4681  -17.8889 C.2       1 <1>         0.1862 
     12 S12         1.3919    5.6147  -18.1600 S.2       1 <1>        -0.2689 
     13 N13         2.7308    3.8828  -16.7189 N.pl3     1 <1>        -0.2371 
     14 C14         1.8832    4.1733  -15.7031 C.ar      1 <1>         0.0557 
     15 C15         1.8269    5.4640  -15.1675 C.ar      1 <1>        -0.0505 
     16 C16         0.9255    5.7561  -14.1406 C.ar      1 <1>        -0.0815 
     17 C17         0.0942    4.7537  -13.6324 C.ar      1 <1>        -0.0517 
     18 C18         0.1820    3.4458  -14.1243 C.ar      1 <1>         0.0505 
     19 C19         1.0673    3.1698  -15.1721 C.ar      1 <1>        -0.0180 
     20 N20        -0.5810    2.4469  -13.6149 N.pl3     1 <1>        -0.2418 
     21 C21        -0.7398    2.2717  -12.3296 C.2       1 <1>         0.2526 
     22 O22        -0.2078    2.9812  -11.4905 O.2       1 <1>        -0.3725 
     23 C23        -1.5906    1.1578  -11.8591 C.2       1 <1>         0.1898 
     24 O24        -2.1791    0.3449  -12.7477 O.3       1 <1>        -0.2498 
     25 C25        -2.8326   -0.4959  -11.9388 C.2       1 <1>         0.0869 
     26 C26        -2.7025   -0.2775  -10.6291 C.2       1 <1>        -0.0553 
     27 C27        -1.8260    0.8894  -10.5727 C.2       1 <1>        -0.0428 
     28 C28         6.4979    4.8916  -19.3891 C.3       1 <1>        -0.0290 
     29 H1          8.1754    1.8553  -23.3016 H         1 <1>         0.0400 
     30 H2          8.4571    3.4907  -23.9791 H         1 <1>         0.0400 
     31 H3          7.2793    2.3904  -24.7523 H         1 <1>         0.0400 
     32 H4          4.9872    3.0616  -24.2595 H         1 <1>         0.0514 
     33 H5          3.2779    3.9090  -22.6951 H         1 <1>         0.0635 
     34 H6          8.0149    3.6784  -21.2731 H         1 <1>         0.0507 
     35 H7          4.2352    3.4885  -18.6727 H         1 <1>         0.2367 
     36 H8          3.4492    3.1656  -16.5475 H         1 <1>         0.2183 
     37 H9          2.4850    6.2396  -15.5462 H         1 <1>         0.0436 
     38 H10         0.8701    6.7632  -13.7382 H         1 <1>         0.0558 
     39 H11        -0.6245    5.0038  -12.8589 H         1 <1>         0.0434 
     40 H12         1.1251    2.1659  -15.5788 H         1 <1>         0.0439 
     41 H13        -1.0351    1.7869  -14.2651 H         1 <1>         0.2091 
     42 H14        -3.4367   -1.3128  -12.3343 H         1 <1>         0.1042 
     43 H15        -3.1400   -0.8301   -9.7981 H         1 <1>         0.0365 
     44 H16        -1.4573    1.4099   -9.6895 H         1 <1>         0.0437 
     45 H17         5.7704    5.6115  -18.9852 H         1 <1>         0.0404 
     46 H18         7.4440    5.4313  -19.5478 H         1 <1>         0.0404 
     47 H19         6.6705    4.0926  -18.6530 H         1 <1>         0.0404 
@<TRIPOS>BOND
     1    2    1 1    
     2    2    3 ar   
     3    3    4 ar   
     4    4    5 ar   
     5    5    6 ar   
     6    6    7 ar   
     7    2    7 ar   
     8    5    8 1    
     9    8    9 2    
    10    8   10 am   
    11   10   11 am   
    12   11   12 2    
    13   11   13 1    
    14   13   14 1    
    15   14   15 ar   
    16   15   16 ar   
    17   16   17 ar   
    18   17   18 ar   
    19   18   19 ar   
    20   14   19 ar   
    21   18   20 1    
    22   20   21 1    
    23   21   22 2    
    24   21   23 1    
    25   23   24 1    
    26   24   25 1    
    27   25   26 2    
    28   26   27 1    
    29   23   27 2    
    30    6   28 1    
    31    1   29 1    
    32    1   30 1    
    33    1   31 1    
    34    3   32 1    
    35    4   33 1    
    36    7   34 1    
    37   10   35 1    
    38   13   36 1    
    39   15   37 1    
    40   16   38 1    
    41   17   39 1    
    42   19   40 1    
    43   20   41 1    
    44   25   42 1    
    45   26   43 1    
    46   27   44 1    
    47   28   45 1    
    48   28   46 1    
    49   28   47 1    
@<TRIPOS>SUBSTRUCTURE
     1 ****        2 TEMP              0 ****  ****    0 ROOT 
@<TRIPOS>NORMAL
@<TRIPOS>FF_PBC
FORCE_FIELD_SETUP_FEATURE Force Field Setup information
v1.0  0 0.000000 0.000000 0.000000 0.000000 0.000000 0.000000 NONE 0 0 0 0 1 0 0 0 0 0 0 0 0
