#	Name:			PISM00273
#	Creating user name:	baoopengkun
#	Creation time:		Sun Mar 31 17:37:08 2019

#	Modifying user name:	baoopengkun
#	Modification time:	Sun Mar 31 17:40:58 2019

@<TRIPOS>MOLECULE
PISM00273
   51    52     1     1     0
SMALL
GAST_HUCK


@<TRIPOS>ATOM
      1 C1         -6.0443    4.8820   -4.3514 C.ar      1 <1>        -0.0795 
      2 C2         -4.7346    5.3265   -4.5564 C.ar      1 <1>        -0.0432 
      3 C3         -3.7030    4.4069   -4.7886 C.ar      1 <1>         0.1176 
      4 C4         -4.0015    3.0389   -4.7746 C.ar      1 <1>         0.1167 
      5 C5         -5.3117    2.6002   -4.5673 C.ar      1 <1>        -0.0403 
      6 C6         -6.3512    3.5177   -4.3777 C.ar      1 <1>        -0.0595 
      7 O7         -2.3812    4.8147   -5.0345 O.3       1 <1>        -0.3259 
      8 C8         -2.0179    6.1966   -5.1822 C.3       1 <1>         0.0567 
      9 O9         -2.9909    2.0926   -4.9674 O.3       1 <1>        -0.3256 
     10 C10        -2.1131    1.9279   -3.8415 C.3       1 <1>         0.0568 
     11 C11        -7.7915    3.0858   -4.1899 C.2       1 <1>        -0.0763 
     12 C12        -8.3033    1.9627   -4.7127 C.2       1 <1>        -0.0656 
     13 C13        -9.7368    1.5360   -4.4984 C.3       1 <1>         0.0327 
     14 N14       -10.5504    1.7295   -5.7263 N.3       1 <1>        -0.2596 
     15 C15       -10.7342    3.1521   -6.1174 C.3       1 <1>         0.1047 
     16 C16       -11.3669    3.9636   -5.0166 C.2       1 <1>         0.2482 
     17 O17       -12.4978    3.7226   -4.6248 O.2       1 <1>        -0.3690 
     18 O18       -10.6077    4.9442   -4.5054 O.3       1 <1>        -0.2792 
     19 C19       -11.2373    5.6516   -3.4197 C.3       1 <1>         0.0658 
     20 C20       -10.2377    0.8214   -6.8584 C.3       1 <1>         0.0378 
     21 C21       -10.3446   -0.6473   -6.4297 C.ar      1 <1>        -0.0283 
     22 C22        -9.3170   -1.5606   -6.6919 C.ar      1 <1>        -0.0585 
     23 C23        -9.4371   -2.8911   -6.2789 C.ar      1 <1>        -0.0546 
     24 C24       -10.5835   -3.3143   -5.6018 C.ar      1 <1>         0.0330 
     25 C25       -11.6130   -2.4065   -5.3410 C.ar      1 <1>        -0.0546 
     26 C26       -11.4940   -1.0773   -5.7576 C.ar      1 <1>        -0.0585 
     27 Cl27      -10.7306   -4.9806   -5.0809 Cl        1 <1>        -0.0771 
     28 H1         -6.8311    5.6091   -4.1742 H         1 <1>         0.0472 
     29 H2         -4.5465    6.3929   -4.5307 H         1 <1>         0.0508 
     30 H3         -5.4980    1.5335   -4.5455 H         1 <1>         0.0473 
     31 H4         -0.9433    6.2362   -5.4136 H         1 <1>         0.0573 
     32 H5         -2.1902    6.7560   -4.2501 H         1 <1>         0.0573 
     33 H6         -2.5702    6.6613   -6.0135 H         1 <1>         0.0573 
     34 H7         -1.3758    1.1514   -4.0924 H         1 <1>         0.0573 
     35 H8         -2.6798    1.6037   -2.9548 H         1 <1>         0.0573 
     36 H9         -1.5743    2.8587   -3.6071 H         1 <1>         0.0573 
     37 H10        -8.4309    3.7426   -3.6003 H         1 <1>         0.0412 
     38 H11        -7.6880    1.3103   -5.3304 H         1 <1>         0.0691 
     39 H12       -10.1968    2.0918   -3.6665 H         1 <1>         0.0619 
     40 H13        -9.7380    0.4803   -4.1872 H         1 <1>         0.0619 
     41 H14       -11.4199    3.2298   -6.9744 H         1 <1>         0.0688 
     42 H15        -9.7694    3.5956   -6.4094 H         1 <1>         0.0688 
     43 H16       -12.1704    6.1396   -3.7446 H         1 <1>         0.0577 
     44 H17       -10.5409    6.4288   -3.0722 H         1 <1>         0.0577 
     45 H18       -11.4512    4.9742   -2.5772 H         1 <1>         0.0577 
     46 H19        -9.2439    1.0544   -7.2704 H         1 <1>         0.0594 
     47 H20       -10.9763    0.9492   -7.6651 H         1 <1>         0.0594 
     48 H21        -8.4211   -1.2443   -7.2164 H         1 <1>         0.0558 
     49 H22        -8.6400   -3.5985   -6.4834 H         1 <1>         0.0606 
     50 H23       -12.5035   -2.7349   -4.8150 H         1 <1>         0.0606 
     51 H24       -12.2975   -0.3758   -5.5558 H         1 <1>         0.0558 
@<TRIPOS>BOND
     1    2    1 ar   
     2    2    3 ar   
     3    3    4 ar   
     4    4    5 ar   
     5    5    6 ar   
     6    1    6 ar   
     7    3    7 1    
     8    7    8 1    
     9    4    9 1    
    10    9   10 1    
    11    6   11 1    
    12   11   12 2    
    13   12   13 1    
    14   13   14 1    
    15   14   15 1    
    16   15   16 1    
    17   16   17 2    
    18   16   18 1    
    19   18   19 1    
    20   14   20 1    
    21   20   21 1    
    22   21   22 ar   
    23   22   23 ar   
    24   23   24 ar   
    25   24   25 ar   
    26   25   26 ar   
    27   21   26 ar   
    28   24   27 1    
    29    1   28 1    
    30    2   29 1    
    31    5   30 1    
    32    8   31 1    
    33    8   32 1    
    34    8   33 1    
    35   10   34 1    
    36   10   35 1    
    37   10   36 1    
    38   11   37 1    
    39   12   38 1    
    40   13   39 1    
    41   13   40 1    
    42   15   41 1    
    43   15   42 1    
    44   19   43 1    
    45   19   44 1    
    46   19   45 1    
    47   20   46 1    
    48   20   47 1    
    49   22   48 1    
    50   23   49 1    
    51   25   50 1    
    52   26   51 1    
@<TRIPOS>SUBSTRUCTURE
     1 ****        2 TEMP              0 ****  ****    0 ROOT 
@<TRIPOS>NORMAL
@<TRIPOS>FF_PBC
FORCE_FIELD_SETUP_FEATURE Force Field Setup information
v1.0  0 0.000000 0.000000 0.000000 0.000000 0.000000 0.000000 NONE 0 0 0 0 1 0 0 0 0 0 0 0 0
