#	Name:			PISM00388
#	Creating user name:	baoopengkun
#	Creation time:		Sun Mar 31 16:33:15 2019

#	Modifying user name:	baoopengkun
#	Modification time:	Sun Mar 31 16:37:00 2019

@<TRIPOS>MOLECULE
PISM00388
   46    46     1     1     0
SMALL
GAST_HUCK


@<TRIPOS>ATOM
      1 C1         -5.1179    2.4803   -4.2537 C.3       1 <1>        -0.0542 
      2 C2         -4.2452    3.5524   -3.5292 C.3       1 <1>         0.0202 
      3 C3         -2.8106    3.4745   -4.1418 C.3       1 <1>        -0.0542 
      4 C4         -4.8305    4.9640   -3.8265 C.3       1 <1>         0.0297 
      5 C5         -6.1626    5.1272   -3.1495 C.2       1 <1>         0.1060 
      6 C6         -6.2011    4.9203   -1.6616 C.3       1 <1>         0.0271 
      7 C7         -5.6229    3.5216   -1.3189 C.3       1 <1>         0.0117 
      8 C8         -4.2211    3.3210   -1.9739 C.3       1 <1>         0.1338 
      9 O9         -7.1673    5.4112   -3.7804 O.2       1 <1>        -0.3916 
     10 C10        -5.5871    3.3259    0.2252 C.3       1 <1>        -0.0568 
     11 C11        -3.3005    4.2615   -1.3310 C.1       1 <1>        -0.0746 
     12 C12        -2.5568    5.0344   -0.7855 C.1       1 <1>        -0.0832 
     13 C13        -1.6760    5.9560   -0.1126 C.2       1 <1>        -0.0119 
     14 C14        -1.5084    5.7845    1.3771 C.3       1 <1>        -0.0336 
     15 C15        -1.0478    6.9147   -0.8079 C.2       1 <1>        -0.0671 
     16 C16        -1.2269    7.0702   -2.2968 C.3       1 <1>         0.0156 
     17 S17        -0.2715    8.4959   -2.9098 S.3       1 <1>        -0.1489 
     18 C18        -0.6487    8.3794   -4.6896 C.3       1 <1>        -0.0071 
     19 C19         0.1230    9.4943   -5.4357 C.3       1 <1>        -0.0560 
     20 O20        -3.8108    1.9827   -1.6393 O.3       1 <1>        -0.3764 
     21 H1         -6.1859    2.5731   -4.0127 H         1 <1>         0.0238 
     22 H2         -4.7883    1.4664   -3.9812 H         1 <1>         0.0238 
     23 H3         -5.0274    2.5835   -5.3461 H         1 <1>         0.0238 
     24 H4         -2.3948    2.4595   -4.0672 H         1 <1>         0.0238 
     25 H5         -2.1188    4.1663   -3.6425 H         1 <1>         0.0238 
     26 H6         -2.8313    3.7423   -5.2094 H         1 <1>         0.0238 
     27 H7         -4.9521    5.1141   -4.9112 H         1 <1>         0.0500 
     28 H8         -4.1622    5.7524   -3.4512 H         1 <1>         0.0500 
     29 H9         -7.2394    5.0013   -1.3019 H         1 <1>         0.0498 
     30 H10        -5.6098    5.7165   -1.1840 H         1 <1>         0.0498 
     31 H11        -6.3053    2.7499   -1.7092 H         1 <1>         0.0360 
     32 H12        -4.9548    4.0832    0.7123 H         1 <1>         0.0235 
     33 H13        -5.1961    2.3293    0.4821 H         1 <1>         0.0235 
     34 H14        -6.6031    3.4114    0.6412 H         1 <1>         0.0235 
     35 H15        -0.8282    6.5283    1.8187 H         1 <1>         0.0355 
     36 H16        -1.1076    4.7806    1.5827 H         1 <1>         0.0355 
     37 H17        -2.4910    5.8789    1.8632 H         1 <1>         0.0355 
     38 H18        -0.3834    7.6082   -0.2918 H         1 <1>         0.0538 
     39 H19        -2.2896    7.2288   -2.5331 H         1 <1>         0.0524 
     40 H20        -0.8660    6.1642   -2.8049 H         1 <1>         0.0524 
     41 H21        -1.7337    8.4985   -4.8389 H         1 <1>         0.0375 
     42 H22        -0.3410    7.3898   -5.0636 H         1 <1>         0.0375 
     43 H23        -0.0881    9.4439   -6.5155 H         1 <1>         0.0238 
     44 H24         1.2067    9.3736   -5.2810 H         1 <1>         0.0238 
     45 H25        -0.1812   10.4842   -5.0612 H         1 <1>         0.0238 
     46 H26        -2.9096    1.7880   -1.8698 H         1 <1>         0.2113 
@<TRIPOS>BOND
     1    2    1 1    
     2    2    3 1    
     3    2    4 1    
     4    4    5 1    
     5    5    6 1    
     6    6    7 1    
     7    7    8 1    
     8    2    8 1    
     9    5    9 2    
    10    7   10 1    
    11    8   11 1    
    12   11   12 3    
    13   12   13 1    
    14   13   14 1    
    15   13   15 2    
    16   15   16 1    
    17   16   17 1    
    18   17   18 1    
    19   18   19 1    
    20    8   20 1    
    21    1   21 1    
    22    1   22 1    
    23    1   23 1    
    24    3   24 1    
    25    3   25 1    
    26    3   26 1    
    27    4   27 1    
    28    4   28 1    
    29    6   29 1    
    30    6   30 1    
    31    7   31 1    
    32   10   32 1    
    33   10   33 1    
    34   10   34 1    
    35   14   35 1    
    36   14   36 1    
    37   14   37 1    
    38   15   38 1    
    39   16   39 1    
    40   16   40 1    
    41   18   41 1    
    42   18   42 1    
    43   19   43 1    
    44   19   44 1    
    45   19   45 1    
    46   20   46 1    
@<TRIPOS>SUBSTRUCTURE
     1 ****        2 TEMP              0 ****  ****    0 ROOT 
@<TRIPOS>NORMAL
@<TRIPOS>FF_PBC
FORCE_FIELD_SETUP_FEATURE Force Field Setup information
v1.0  0 0.000000 0.000000 0.000000 0.000000 0.000000 0.000000 NONE 0 0 0 0 1 0 0 0 0 0 0 0 0
