#	Name:			PISM00929
#	Creating user name:	baoopengkun
#	Creation time:		Wed Dec 12 22:10:58 2018

#	Modifying user name:	baoopengkun
#	Modification time:	Wed Dec 12 22:12:15 2018

@<TRIPOS>MOLECULE
PISM00929
   51    51     1     1     0
SMALL
GAST_HUCK


@<TRIPOS>ATOM
      1 C1          2.8117  -12.7901   15.1818 C.3       1 <1>        -0.0609 
      2 C2          3.8990  -12.1141   14.2840 C.3       1 <1>        -0.0462 
      3 C3          4.7638  -11.2030   15.2019 C.3       1 <1>        -0.0609 
      4 C4          4.7813  -13.2739   13.7206 C.3       1 <1>        -0.0609 
      5 C5          3.1597  -11.3096   13.1497 C.3       1 <1>        -0.0733 
      6 C6          3.8596  -10.1304   12.3744 C.3       1 <1>        -0.0537 
      7 C7          2.8540   -9.5929   11.3057 C.3       1 <1>        -0.0901 
      8 C8          5.0899  -10.6563   11.5704 C.3       1 <1>        -0.0901 
      9 C9          4.1955   -8.9216   13.2980 C.ar      1 <1>        -0.0623 
     10 C10         3.1987   -8.3552   14.1085 C.ar      1 <1>        -0.0461 
     11 C11         3.4894   -7.3440   15.0285 C.ar      1 <1>         0.0013 
     12 C12         4.7849   -6.8379   15.1235 C.ar      1 <1>         0.1291 
     13 C13         5.7782   -7.3397   14.2827 C.ar      1 <1>         0.0013 
     14 C14         5.4752   -8.3459   13.3606 C.ar      1 <1>        -0.0461 
     15 O15         5.0805   -5.8382   16.0495 O.3       1 <1>        -0.2908 
     16 C16         5.0908   -4.5107   15.4957 C.3       1 <1>         0.1029 
     17 C17         5.3973   -3.5023   16.6253 C.3       1 <1>         0.0771 
     18 O18         5.4023   -2.1754   16.0610 O.3       1 <1>        -0.3747 
     19 C19         5.6698   -1.1426   17.0318 C.3       1 <1>         0.0709 
     20 C20         5.6657    0.2237   16.3044 C.3       1 <1>         0.0676 
     21 O21         5.9798    1.3010   17.2061 O.3       1 <1>        -0.3927 
     22 H1          2.1551  -13.4315   14.5736 H         1 <1>         0.0235 
     23 H2          2.1860  -12.0359   15.6841 H         1 <1>         0.0235 
     24 H3          3.2670  -13.4144   15.9661 H         1 <1>         0.0235 
     25 H4          5.1876  -11.7855   16.0341 H         1 <1>         0.0235 
     26 H5          4.1563  -10.3936   15.6318 H         1 <1>         0.0235 
     27 H6          5.6041  -10.7654   14.6474 H         1 <1>         0.0235 
     28 H7          5.6336  -12.9202   13.1325 H         1 <1>         0.0235 
     29 H8          4.1841  -13.9435   13.0831 H         1 <1>         0.0235 
     30 H9          5.1951  -13.8766   14.5437 H         1 <1>         0.0235 
     31 H10         2.2399  -10.9013   13.5871 H         1 <1>         0.0159 
     32 H11         2.8177  -12.0466   12.4063 H         1 <1>         0.0159 
     33 H12         2.6337  -10.3639   10.5510 H         1 <1>         0.0117 
     34 H13         3.2775   -8.7187   10.7867 H         1 <1>         0.0117 
     35 H14         1.8969   -9.2845   11.7502 H         1 <1>         0.0117 
     36 H15         5.9411  -10.8907   12.2201 H         1 <1>         0.0117 
     37 H16         5.4310   -9.9102   10.8359 H         1 <1>         0.0117 
     38 H17         4.8256  -11.5670   11.0115 H         1 <1>         0.0117 
     39 H18         2.1693   -8.6840   14.0445 H         1 <1>         0.0823 
     40 H19         2.7121   -6.9459   15.6724 H         1 <1>         0.0651 
     41 H20         6.7861   -6.9431   14.3499 H         1 <1>         0.0651 
     42 H21         6.2720   -8.6562   12.6982 H         1 <1>         0.0823 
     43 H22         4.1092   -4.2670   15.0567 H         1 <1>         0.0656 
     44 H23         5.8617   -4.4169   14.7134 H         1 <1>         0.0656 
     45 H24         6.3781   -3.7493   17.0641 H         1 <1>         0.0588 
     46 H25         4.6231   -3.5993   17.4042 H         1 <1>         0.0588 
     47 H26         6.6560   -1.2864   17.5030 H         1 <1>         0.0583 
     48 H27         4.8959   -1.1357   17.8166 H         1 <1>         0.0583 
     49 H28         4.6873    0.3873   15.8213 H         1 <1>         0.0580 
     50 H29         6.4360    0.2061   15.5172 H         1 <1>         0.0580 
     51 H30         5.3398    1.4041   17.9039 H         1 <1>         0.2095 
@<TRIPOS>BOND
     1    2    1 1    
     2    2    3 1    
     3    2    4 1    
     4    2    5 1    
     5    5    6 1    
     6    6    7 1    
     7    6    8 1    
     8    6    9 1    
     9    9   10 ar   
    10   10   11 ar   
    11   11   12 ar   
    12   12   13 ar   
    13   13   14 ar   
    14    9   14 ar   
    15   12   15 1    
    16   15   16 1    
    17   16   17 1    
    18   17   18 1    
    19   18   19 1    
    20   19   20 1    
    21   20   21 1    
    22    1   22 1    
    23    1   23 1    
    24    1   24 1    
    25    3   25 1    
    26    3   26 1    
    27    3   27 1    
    28    4   28 1    
    29    4   29 1    
    30    4   30 1    
    31    5   31 1    
    32    5   32 1    
    33    7   33 1    
    34    7   34 1    
    35    7   35 1    
    36    8   36 1    
    37    8   37 1    
    38    8   38 1    
    39   10   39 1    
    40   11   40 1    
    41   13   41 1    
    42   14   42 1    
    43   16   43 1    
    44   16   44 1    
    45   17   45 1    
    46   17   46 1    
    47   19   47 1    
    48   19   48 1    
    49   20   49 1    
    50   20   50 1    
    51   21   51 1    
@<TRIPOS>SUBSTRUCTURE
     1 ****        2 TEMP              0 ****  ****    0 ROOT 
@<TRIPOS>NORMAL
@<TRIPOS>FF_PBC
FORCE_FIELD_SETUP_FEATURE Force Field Setup information
v1.0  0 0.000000 0.000000 0.000000 0.000000 0.000000 0.000000 NONE 0 0 0 0 1 0 0 0 0 0 0 0 0
