#	Name:			PISM00559
#	Creating user name:	baoopengkun
#	Creation time:		Sun Dec 16 00:17:16 2018

#	Modifying user name:	baoopengkun
#	Modification time:	Sun Dec 16 00:19:17 2018

@<TRIPOS>MOLECULE
PISM00559
   33    34     1     1     0
SMALL
GAST_HUCK


@<TRIPOS>ATOM
      1 Cl1        -0.8200   -2.2156   17.1691 Cl        1 <1>        -0.0768 
      2 C2         -0.1011   -0.6306   16.9700 C.ar      1 <1>         0.0333 
      3 C3         -0.8996    0.4618   16.6217 C.ar      1 <1>        -0.0542 
      4 C4         -0.3263    1.7265   16.4594 C.ar      1 <1>        -0.0573 
      5 C5          1.0499    1.9051   16.6437 C.ar      1 <1>        -0.0262 
      6 C6          1.8446    0.8090   16.9973 C.ar      1 <1>        -0.0573 
      7 C7          1.2721   -0.4560   17.1590 C.ar      1 <1>        -0.0542 
      8 C8          1.7052    3.2805   16.4682 C.3       1 <1>         0.0498 
      9 C9          2.2706    3.7254   17.7929 C.2       1 <1>         0.1162 
     10 N10         1.4598    3.9373   18.7931 N.pl3     1 <1>        -0.3195 
     11 N11         3.5351    3.8720   17.8638 N.2       1 <1>        -0.1736 
     12 O12         3.8457    4.2900   19.1725 O.3       1 <1>        -0.1763 
     13 C13         4.6947    5.3251   19.1804 C.2       1 <1>         0.2898 
     14 O14         5.1560    5.6735   20.2552 O.2       1 <1>        -0.3539 
     15 C15         5.1243    6.0772   17.9369 C.ar      1 <1>         0.0657 
     16 C16         6.4619    6.4699   17.8130 C.ar      1 <1>        -0.0402 
     17 C17         6.9061    7.1218   16.6588 C.ar      1 <1>        -0.0421 
     18 C18         6.0115    7.3885   15.6193 C.ar      1 <1>         0.0451 
     19 C19         4.6679    7.0283   15.7503 C.ar      1 <1>        -0.0421 
     20 C20         4.2213    6.4000   16.9167 C.ar      1 <1>        -0.0402 
     21 Cl21        6.5720    8.1739   14.1574 Cl        1 <1>        -0.0665 
     22 H1         -1.9666    0.3249   16.4775 H         1 <1>         0.0606 
     23 H2         -0.9589    2.5662   16.1899 H         1 <1>         0.0562 
     24 H3          2.9120    0.9386   17.1486 H         1 <1>         0.0562 
     25 H4          1.8922   -1.3039   17.4315 H         1 <1>         0.0606 
     26 H5          0.9881    4.0372   16.1167 H         1 <1>         0.0647 
     27 H6          2.5037    3.1947   15.7149 H         1 <1>         0.0647 
     28 H7          1.8481    4.2381   19.6999 H         1 <1>         0.1781 
     29 H8          0.4431    3.8023   18.6943 H         1 <1>         0.1781 
     30 H9          7.1629    6.2643   18.6164 H         1 <1>         0.0670 
     31 H10         7.9455    7.4204   16.5671 H         1 <1>         0.0635 
     32 H11         3.9718    7.2411   14.9452 H         1 <1>         0.0635 
     33 H12         3.1658    6.1772   17.0260 H         1 <1>         0.0670 
@<TRIPOS>BOND
     1    2    1 1    
     2    2    3 ar   
     3    3    4 ar   
     4    4    5 ar   
     5    5    6 ar   
     6    6    7 ar   
     7    2    7 ar   
     8    5    8 1    
     9    8    9 1    
    10    9   10 1    
    11    9   11 2    
    12   11   12 1    
    13   12   13 1    
    14   13   14 2    
    15   13   15 1    
    16   15   16 ar   
    17   16   17 ar   
    18   17   18 ar   
    19   18   19 ar   
    20   19   20 ar   
    21   15   20 ar   
    22   18   21 1    
    23    3   22 1    
    24    4   23 1    
    25    6   24 1    
    26    7   25 1    
    27    8   26 1    
    28    8   27 1    
    29   10   28 1    
    30   10   29 1    
    31   16   30 1    
    32   17   31 1    
    33   19   32 1    
    34   20   33 1    
@<TRIPOS>SUBSTRUCTURE
     1 ****        2 TEMP              0 ****  ****    0 ROOT 
@<TRIPOS>NORMAL
@<TRIPOS>FF_PBC
FORCE_FIELD_SETUP_FEATURE Force Field Setup information
v1.0  0 0.000000 0.000000 0.000000 0.000000 0.000000 0.000000 NONE 0 0 0 0 1 0 0 0 0 0 0 0 0
