#	Name:			PISM01166
#	Creating user name:	malab
#	Creation time:		Wed Apr 10 23:57:51 2019

#	Modifying user name:	malab
#	Modification time:	Thu Apr 11 00:00:13 2019

@<TRIPOS>MOLECULE
PISM01166
   55    59     1     2     0
SMALL
GAST_HUCK


@<TRIPOS>ATOM
      1 O1         10.6420   25.0052  -16.6791 O.3       1 <1>        -0.2990 
      2 C2          9.7108   26.1243  -16.8124 C.3       1 <1>         0.0288 
      3 C3          8.2015   25.6944  -16.8275 C.3       1 <1>        -0.0414 
      4 C4          8.1280   25.0030  -15.5117 C.2       1 <1>        -0.0471 
      5 C5          9.1716   24.2381  -14.9030 C.2       1 <1>         0.0670 
      6 C6         10.4358   24.1757  -15.6368 C.2       1 <1>         0.2440 
      7 O7         11.2914   23.3663  -15.3208 O.2       1 <1>        -0.3688 
      8 C8          8.6107   23.8046  -13.7694 C.2       1 <1>         0.1275 
      9 O9          7.3451   24.2171  -13.5370 O.3       1 <1>        -0.2133 
     10 C10         7.1487   24.9606  -14.6335 C.2       1 <1>         0.2124 
     11 C11         5.9476   25.7376  -14.9063 C.2       1 <1>         0.2755 
     12 C12         6.0054   26.6830  -16.0508 C.2       1 <1>         0.0652 
     13 C13         7.0470   26.7089  -16.9147 C.2       1 <1>        -0.0499 
     14 O14         4.9586   25.6163  -14.2026 O.2       1 <1>        -0.2849 
     15 C15         4.8068   27.5946  -16.1818 C.3       1 <1>         0.0396 
     16 C16         4.6940   28.3304  -17.5361 C.3       1 <1>         0.0580 
     17 C17         6.0859   28.8554  -17.9573 C.3       1 <1>        -0.0004 
     18 C18         7.1141   27.6997  -18.0683 C.3       1 <1>         0.1066 
     19 C19         3.8294   29.4981  -17.1423 C.2       1 <1>         0.1370 
     20 C20         3.7565   29.7330  -15.6598 C.3       1 <1>         0.0266 
     21 C21         4.7834   28.7126  -15.1088 C.3       1 <1>        -0.0158 
     22 O22         3.2135   30.1729  -17.9514 O.2       1 <1>        -0.3318 
     23 C23         4.0350   27.4519  -18.6356 C.3       1 <1>        -0.0508 
     24 C24         7.9718   24.6194  -17.9262 C.3       1 <1>        -0.1114 
     25 O25         8.4275   28.2914  -18.0940 O.3       1 <1>        -0.2632 
     26 C26         8.7449   28.9626  -19.2111 C.2       1 <1>         0.2327 
     27 C27        10.0804   29.6528  -19.1603 C.3       1 <1>         0.0374 
     28 O28         8.0418   29.0163  -20.2087 O.2       1 <1>        -0.3705 
     29 H1          9.9737   26.5471  -17.7927 H         1 <1>         0.0000 
     30 C30         9.9918   27.2100  -15.7286 C.3       1 <1>         0.0000 
     31 H3          9.1468   23.1675  -13.0672 H         1 <1>         0.0000 
     32 H4          3.8879   26.9970  -16.0522 H         1 <1>         0.0000 
     33 H5          6.4678   29.5746  -17.2179 H         1 <1>         0.0000 
     34 H6          5.9808   29.3996  -18.9091 H         1 <1>         0.0000 
     35 H7          6.9269   27.1196  -18.9858 H         1 <1>         0.0000 
     36 H8          2.7380   29.4853  -15.3212 H         1 <1>         0.0000 
     37 H9          3.9969   30.7711  -15.3818 H         1 <1>         0.0000 
     38 H10         4.5037   28.3382  -14.1103 H         1 <1>         0.0000 
     39 H11         5.7783   29.1785  -15.0248 H         1 <1>         0.0000 
     40 H12         4.0207   27.9850  -19.5984 H         1 <1>         0.0000 
     41 H13         2.9964   27.2115  -18.3602 H         1 <1>         0.0000 
     42 H14         4.5839   26.5068  -18.7591 H         1 <1>         0.0000 
     43 H15         8.1553   25.0391  -18.9264 H         1 <1>         0.0000 
     44 H16         6.9340   24.2530  -17.8830 H         1 <1>         0.0000 
     45 H17         8.6433   23.7572  -17.7951 H         1 <1>         0.0000 
     46 H18        10.8805   28.8992  -19.1025 H         1 <1>         0.0000 
     47 H19        10.1304   30.3003  -18.2715 H         1 <1>         0.0000 
     48 H20        10.2333   30.2699  -20.0591 H         1 <1>         0.0000 
     49 O49        11.1732   28.0004  -15.9755 O.3       1 <1>         0.0000 
     50 C50        12.4072   27.2619  -15.9159 C.3       1 <1>         0.0000 
     51 H2         10.0353   26.7751  -14.7180 H         1 <1>         0.0000 
     52 H21         9.1747   27.9453  -15.7256 H         1 <1>         0.0000 
     53 H22        13.2258   27.9935  -15.9803 H         1 <1>         0.0000 
     54 H23        12.5111   26.5672  -16.7608 H         1 <1>         0.0000 
     55 H24        12.5081   26.7123  -14.9680 H         1 <1>         0.0000 
@<TRIPOS>BOND
     1    2    1 1    
     2    2    3 1    
     3    3    4 1    
     4    4    5 1    
     5    5    6 1    
     6    1    6 1    
     7    6    7 2    
     8    5    8 2    
     9    8    9 1    
    10    9   10 1    
    11    4   10 2    
    12   10   11 1    
    13   11   12 1    
    14   12   13 2    
    15    3   13 1    
    16   11   14 2    
    17   12   15 1    
    18   15   16 1    
    19   16   17 1    
    20   17   18 1    
    21   13   18 1    
    22   16   19 1    
    23   19   20 1    
    24   20   21 1    
    25   15   21 1    
    26   19   22 2    
    27   16   23 1    
    28    3   24 1    
    29   18   25 1    
    30   25   26 1    
    31   26   27 1    
    32   26   28 2    
    33    2   29 1    
    34    2   30 1    
    35    8   31 1    
    36   15   32 1    
    37   17   33 1    
    38   17   34 1    
    39   18   35 1    
    40   20   36 1    
    41   20   37 1    
    42   21   38 1    
    43   21   39 1    
    44   23   40 1    
    45   23   41 1    
    46   23   42 1    
    47   24   43 1    
    48   24   44 1    
    49   24   45 1    
    50   27   46 1    
    51   27   47 1    
    52   27   48 1    
    53   30   49 1    
    54   49   50 1    
    55   30   51 1    
    56   30   52 1    
    57   50   53 1    
    58   50   54 1    
    59   50   55 1    
@<TRIPOS>SUBSTRUCTURE
     1 ****        2 TEMP              0 ****  ****    0 ROOT 
@<TRIPOS>NORMAL
@<TRIPOS>FF_PBC
FORCE_FIELD_SETUP_FEATURE Force Field Setup information
v1.0  0 0.000000 0.000000 0.000000 0.000000 0.000000 0.000000 NONE 0 0 0 0 0 0 0 0 0 0 0 0 0
@<TRIPOS>RENDERING_ATTRS
ANTIALIASED_LINES 
*
