#	Name:			PISM00060
#	Creating user name:	baoopengkun
#	Creation time:		Thu Dec 27 16:24:43 2018

#	Modifying user name:	baoopengkun
#	Modification time:	Thu Dec 27 16:26:21 2018

@<TRIPOS>MOLECULE
PISM00060
   36    37     1     1     0
SMALL
GAST_HUCK


@<TRIPOS>ATOM
      1 Br1         2.3340   -1.0726  -16.6769 Br        1 <1>        -0.0594 
      2 C2          0.8834   -0.2470  -15.8733 C.ar      1 <1>         0.0062 
      3 C3         -0.2372    0.0966  -16.6326 C.ar      1 <1>        -0.0580 
      4 C4         -1.3199    0.7409  -16.0276 C.ar      1 <1>        -0.0307 
      5 C5         -1.2723    1.0960  -14.6731 C.ar      1 <1>         0.0862 
      6 C6         -0.1804    0.6775  -13.8996 C.ar      1 <1>         0.0860 
      7 C7          0.9037    0.0320  -14.5047 C.ar      1 <1>        -0.0409 
      8 C8         -0.1708    0.9206  -12.4054 C.2       1 <1>         0.2540 
      9 O9          0.9161    0.6415  -11.6838 O.3       1 <1>        -0.2954 
     10 O10        -1.1709    1.3686  -11.8652 O.2       1 <1>        -0.3643 
     11 N11        -2.2653    1.8239  -14.1003 N.pl3     1 <1>        -0.2343 
     12 C12        -2.8389    2.8353  -14.6989 C.2       1 <1>         0.2264 
     13 O13        -2.4982    3.2080  -15.8097 O.2       1 <1>        -0.3720 
     14 C14        -3.9565    3.6094  -14.0272 C.ar      1 <1>         0.0846 
     15 C15        -4.3749    4.8446  -14.5365 C.ar      1 <1>        -0.0496 
     16 C16        -5.3980    5.5602  -13.9073 C.ar      1 <1>        -0.0669 
     17 C17        -6.0059    5.0478  -12.7581 C.ar      1 <1>        -0.0660 
     18 C18        -5.5936    3.8143  -12.2468 C.ar      1 <1>        -0.0266 
     19 C19        -4.5861    3.0907  -12.8908 C.ar      1 <1>         0.1135 
     20 O20        -4.2030    1.8409  -12.3998 O.3       1 <1>        -0.3126 
     21 C21        -5.1189    0.7731  -12.7016 C.3       1 <1>         0.0694 
     22 C22        -4.5398   -0.5396  -12.1225 C.3       1 <1>        -0.0369 
     23 H1         -0.2673   -0.1382  -17.6920 H         1 <1>         0.0649 
     24 H2         -2.2018    0.9533  -16.6227 H         1 <1>         0.0550 
     25 H3          1.7670   -0.2577  -13.9148 H         1 <1>         0.0669 
     26 H4          0.7859    0.8418  -10.7633 H         1 <1>         0.2519 
     27 H5         -2.5443    1.5964  -13.1284 H         1 <1>         0.2131 
     28 H6         -3.9049    5.2563  -15.4243 H         1 <1>         0.0642 
     29 H7         -5.7200    6.5156  -14.3111 H         1 <1>         0.0537 
     30 H8         -6.7954    5.6062  -12.2640 H         1 <1>         0.0626 
     31 H9         -6.0538    3.4161  -11.3486 H         1 <1>         0.0555 
     32 H10        -5.2357    0.6737  -13.7941 H         1 <1>         0.0614 
     33 H11        -6.1071    0.9689  -12.2534 H         1 <1>         0.0614 
     34 H12        -5.2193   -1.3826  -12.3241 H         1 <1>         0.0256 
     35 H13        -4.4074   -0.4404  -11.0339 H         1 <1>         0.0256 
     36 H14        -3.5610   -0.7558  -12.5783 H         1 <1>         0.0256 
@<TRIPOS>BOND
     1    2    1 1    
     2    2    3 ar   
     3    3    4 ar   
     4    4    5 ar   
     5    5    6 ar   
     6    6    7 ar   
     7    2    7 ar   
     8    6    8 1    
     9    8    9 1    
    10    8   10 2    
    11    5   11 1    
    12   11   12 1    
    13   12   13 2    
    14   12   14 1    
    15   14   15 ar   
    16   15   16 ar   
    17   16   17 ar   
    18   17   18 ar   
    19   18   19 ar   
    20   14   19 ar   
    21   19   20 1    
    22   20   21 1    
    23   21   22 1    
    24    3   23 1    
    25    4   24 1    
    26    7   25 1    
    27    9   26 1    
    28   11   27 1    
    29   15   28 1    
    30   16   29 1    
    31   17   30 1    
    32   18   31 1    
    33   21   32 1    
    34   21   33 1    
    35   22   34 1    
    36   22   35 1    
    37   22   36 1    
@<TRIPOS>SUBSTRUCTURE
     1 ****        2 TEMP              0 ****  ****    0 ROOT 
@<TRIPOS>NORMAL
@<TRIPOS>FF_PBC
FORCE_FIELD_SETUP_FEATURE Force Field Setup information
v1.0  0 0.000000 0.000000 0.000000 0.000000 0.000000 0.000000 NONE 0 0 0 0 1 0 0 0 0 0 0 0 0
