#	Name:			PISM00337
#	Creating user name:	baoopengkun
#	Creation time:		Sun Mar 31 18:46:55 2019

#	Modifying user name:	baoopengkun
#	Modification time:	Sun Mar 31 18:49:15 2019

@<TRIPOS>MOLECULE
PISM00337
   52    52     1     1     0
SMALL
GAST_HUCK


@<TRIPOS>ATOM
      1 C1          0.4572   -0.5201  -10.3012 C.3       1 <1>        -0.0486 
      2 C2         -0.1926   -1.6433   -9.4402 C.3       1 <1>         0.0225 
      3 C3          0.1788   -1.4656   -7.9971 C.2       1 <1>         0.1783 
      4 C4          0.4584   -0.1299   -7.4412 C.2       1 <1>         0.1080 
      5 C5          0.4257    0.9740   -8.2026 C.2       1 <1>        -0.0545 
      6 C6          0.1304    0.8892   -9.6879 C.3       1 <1>         0.0241 
      7 C7          1.9981   -0.7777  -10.3505 C.3       1 <1>        -0.0722 
      8 C8         -0.0986   -0.6165  -11.7529 C.3       1 <1>        -0.0722 
      9 O9          0.2509   -2.4486   -7.2765 O.2       1 <1>        -0.3530 
     10 S10         0.8539   -0.0465   -5.7009 S.3       1 <1>        -0.0484 
     11 C11         0.6686    2.3672   -7.6539 C.3       1 <1>        -0.0414 
     12 C12        -1.3409    1.2342   -9.7921 C.2       1 <1>        -0.0993 
     13 C13        -1.8129    2.3906  -10.2784 C.2       1 <1>        -0.0245 
     14 C14        -3.2625    2.6626  -10.3639 C.2       1 <1>         0.0167 
     15 C15        -4.1345    1.6338  -11.0472 C.3       1 <1>        -0.0145 
     16 C16        -3.8174    3.7777   -9.8634 C.2       1 <1>         0.0580 
     17 C17        -3.1024    4.8629   -9.1476 C.2       1 <1>         0.2688 
     18 O18        -1.9035    4.7980   -8.9456 O.2       1 <1>        -0.3498 
     19 O19        -3.7423    5.9454   -8.6924 O.3       1 <1>        -0.2928 
     20 O20         0.8598    1.9168  -10.3850 O.3       1 <1>        -0.4725 
     21 C21         2.6557   -0.0618   -5.9717 C.3       1 <1>         0.0189 
     22 C22         3.3666    0.2133   -4.6229 C.3       1 <1>        -0.0404 
     23 C23         4.9075    0.2543   -4.8078 C.3       1 <1>        -0.0549 
     24 C24         5.6285    0.5579   -3.4697 C.3       1 <1>        -0.0652 
     25 H1          0.1550   -2.6308   -9.7818 H         1 <1>         0.0479 
     26 H2         -1.2887   -1.6559   -9.5067 H         1 <1>         0.0479 
     27 H3          2.2158   -1.8155  -10.6462 H         1 <1>         0.0220 
     28 H4          2.4598   -0.6008   -9.3678 H         1 <1>         0.0220 
     29 H5          2.4947   -0.1338  -11.0909 H         1 <1>         0.0220 
     30 H6          0.3071    0.1982  -12.3720 H         1 <1>         0.0220 
     31 H7         -1.1962   -0.5449  -11.7697 H         1 <1>         0.0220 
     32 H8          0.1848   -1.5760  -12.2119 H         1 <1>         0.0220 
     33 H9          0.5155    2.4458   -6.5688 H         1 <1>         0.0386 
     34 H10        -0.0210    3.0818   -8.1252 H         1 <1>         0.0386 
     35 H11         1.6978    2.6811   -7.8802 H         1 <1>         0.0386 
     36 H12        -2.0751    0.5155   -9.4344 H         1 <1>         0.0493 
     37 H13        -1.1330    3.1677  -10.6258 H         1 <1>         0.1042 
     38 H14        -4.8221    2.1162  -11.7583 H         1 <1>         0.0429 
     39 H15        -4.7226    1.0916  -10.2918 H         1 <1>         0.0429 
     40 H16        -3.5283    0.9067  -11.6086 H         1 <1>         0.0429 
     41 H17        -4.8941    3.8944   -9.9835 H         1 <1>         0.0917 
     42 H18        -4.6763    5.9625   -8.8566 H         1 <1>         0.2516 
     43 H19         1.7995    1.8927  -10.2508 H         1 <1>         0.1785 
     44 H20         2.9270    0.7174   -6.7008 H         1 <1>         0.0422 
     45 H21         2.9489   -1.0438   -6.3766 H         1 <1>         0.0422 
     46 H22         3.0974   -0.5764   -3.9021 H         1 <1>         0.0276 
     47 H23         3.0180    1.1802   -4.2231 H         1 <1>         0.0276 
     48 H24         5.1723    1.0335   -5.5420 H         1 <1>         0.0263 
     49 H25         5.2564   -0.7167   -5.1966 H         1 <1>         0.0263 
     50 H26         5.3892   -0.2120   -2.7204 H         1 <1>         0.0230 
     51 H27         5.3176    1.5395   -3.0798 H         1 <1>         0.0230 
     52 H28         6.7188    0.5715   -3.6227 H         1 <1>         0.0230 
@<TRIPOS>BOND
     1    2    1 1    
     2    2    3 1    
     3    3    4 1    
     4    4    5 2    
     5    5    6 1    
     6    1    6 1    
     7    1    7 1    
     8    1    8 1    
     9    3    9 2    
    10    4   10 1    
    11    5   11 1    
    12    6   12 1    
    13   12   13 2    
    14   13   14 1    
    15   14   15 1    
    16   14   16 2    
    17   16   17 1    
    18   17   18 2    
    19   17   19 1    
    20    6   20 1    
    21   10   21 1    
    22   21   22 1    
    23   22   23 1    
    24   23   24 1    
    25    2   25 1    
    26    2   26 1    
    27    7   27 1    
    28    7   28 1    
    29    7   29 1    
    30    8   30 1    
    31    8   31 1    
    32    8   32 1    
    33   11   33 1    
    34   11   34 1    
    35   11   35 1    
    36   12   36 1    
    37   13   37 1    
    38   15   38 1    
    39   15   39 1    
    40   15   40 1    
    41   16   41 1    
    42   19   42 1    
    43   20   43 1    
    44   21   44 1    
    45   21   45 1    
    46   22   46 1    
    47   22   47 1    
    48   23   48 1    
    49   23   49 1    
    50   24   50 1    
    51   24   51 1    
    52   24   52 1    
@<TRIPOS>SUBSTRUCTURE
     1 ****        2 TEMP              0 ****  ****    0 ROOT 
@<TRIPOS>NORMAL
@<TRIPOS>FF_PBC
FORCE_FIELD_SETUP_FEATURE Force Field Setup information
v1.0  0 0.000000 0.000000 0.000000 0.000000 0.000000 0.000000 NONE 0 0 0 0 1 0 0 0 0 0 0 0 0
