#	Name:			PISM00738
#	Creating user name:	baoopengkun
#	Creation time:		Sun Jan 20 22:20:31 2019

#	Modifying user name:	baoopengkun
#	Modification time:	Sun Jan 20 22:24:14 2019

@<TRIPOS>MOLECULE
PISM00738
   85    88     1     1     0
SMALL
GAST_HUCK


@<TRIPOS>ATOM
      1 C1          0.9178    1.3124    3.0040 C.3       1 <1>        -0.0161 
      2 C2          0.7825    0.2102    4.0972 C.3       1 <1>         0.0849 
      3 C3          2.1316   -0.0187    4.8307 C.3       1 <1>         0.0837 
      4 C4          2.7263    1.3002    5.3837 C.3       1 <1>        -0.0028 
      5 C5          2.8938    2.3104    4.2148 C.3       1 <1>         0.0681 
      6 C6          1.5383    2.6552    3.5063 C.3       1 <1>        -0.0055 
      7 C7          1.7886    3.6692    2.3164 C.3       1 <1>        -0.0276 
      8 C8          3.1382    3.4261    1.5641 C.3       1 <1>        -0.0063 
      9 C9          4.3545    3.9523    2.4035 C.3       1 <1>         0.0801 
     10 O10         4.1146    4.4292    3.7487 O.3       1 <1>        -0.2763 
     11 C11         3.5722    3.5865    4.6448 C.2       1 <1>         0.2374 
     12 O12         3.6166    3.8835    5.8262 O.2       1 <1>        -0.3701 
     13 C13         0.6230    3.8059    1.2876 C.3       1 <1>        -0.0487 
     14 C14         0.8244    5.0281    0.3287 C.3       1 <1>        -0.0468 
     15 C15         2.3008    5.2480   -0.1611 C.3       1 <1>        -0.0257 
     16 C16         3.0592    3.9145    0.0756 C.3       1 <1>        -0.0298 
     17 C17         4.3605    3.9934   -0.7586 C.3       1 <1>        -0.0491 
     18 C18         3.9630    4.9132   -1.9486 C.3       1 <1>        -0.0491 
     19 C19         2.4946    5.3964   -1.7154 C.3       1 <1>        -0.0304 
     20 O20         0.4595   -1.0874    3.5427 O.3       1 <1>        -0.3772 
     21 O21         3.0805   -0.5950    3.9138 O.3       1 <1>        -0.3891 
     22 C22         4.7663    8.5806   -5.6152 C.3       1 <1>        -0.0417 
     23 C23         0.5551    3.3396    4.5215 C.3       1 <1>        -0.0568 
     24 C24         2.9630    6.4543    0.5792 C.3       1 <1>        -0.0590 
     25 C25         2.1966    6.7816   -2.3953 C.3       1 <1>        -0.0120 
     26 C26         2.5327    6.7509   -3.9255 C.3       1 <1>         0.0841 
     27 C27         2.3676    8.1413   -4.6342 C.3       1 <1>         0.0841 
     28 C28         3.2441    8.3242   -5.9220 C.3       1 <1>        -0.0130 
     29 C29        -0.7971   -1.1616    2.8413 C.3       1 <1>         0.0369 
     30 C30         5.0988   10.0542   -5.2350 C.3       1 <1>        -0.0623 
     31 C31         5.6780    8.1298   -6.7951 C.3       1 <1>        -0.0623 
     32 C32         0.7226    7.2266   -2.1736 C.3       1 <1>        -0.0597 
     33 O33         1.7093    5.7398   -4.5429 O.3       1 <1>        -0.3890 
     34 O34         0.9780    8.3612   -4.9389 O.3       1 <1>        -0.3890 
     35 C35         2.6502    9.4408   -6.8344 C.3       1 <1>        -0.0597 
     36 H1         -0.0864    1.5183    2.6080 H         1 <1>         0.0298 
     37 H2          1.5307    0.8938    2.1924 H         1 <1>         0.0298 
     38 H3          0.0152    0.4763    4.8411 H         1 <1>         0.0622 
     39 H4          1.9754   -0.7240    5.6683 H         1 <1>         0.0621 
     40 H5          3.7162    1.0728    5.8153 H         1 <1>         0.0319 
     41 H6          2.1133    1.6994    6.2036 H         1 <1>         0.0319 
     42 H7          3.5902    1.7774    3.5564 H         1 <1>         0.0560 
     43 H8          1.8493    4.6700    2.7664 H         1 <1>         0.0311 
     44 H9          3.2783    2.3405    1.4342 H         1 <1>         0.0332 
     45 H10         4.7615    4.8661    1.9588 H         1 <1>         0.0616 
     46 H11         5.1809    3.2217    2.4091 H         1 <1>         0.0616 
     47 H12        -0.3514    3.9387    1.7821 H         1 <1>         0.0268 
     48 H13         0.5438    2.8749    0.7048 H         1 <1>         0.0268 
     49 H14         0.4793    5.9262    0.8665 H         1 <1>         0.0271 
     50 H15         0.1436    4.8799   -0.5244 H         1 <1>         0.0271 
     51 H16         2.4765    3.1525   -0.4791 H         1 <1>         0.0310 
     52 H17         4.6917    2.9939   -1.0903 H         1 <1>         0.0268 
     53 H18         5.2007    4.4436   -0.2123 H         1 <1>         0.0268 
     54 H19         4.0512    4.3666   -2.9033 H         1 <1>         0.0268 
     55 H20         4.6535    5.7720   -1.9826 H         1 <1>         0.0268 
     56 H21         1.8328    4.6620   -2.2068 H         1 <1>         0.0310 
     57 H22         2.7346   -1.3924    3.5197 H         1 <1>         0.2099 
     58 H23         5.0778    7.9736   -4.7504 H         1 <1>         0.0299 
     59 H24        -0.3885    3.6272    4.0401 H         1 <1>         0.0237 
     60 H25         1.0005    4.2534    4.9441 H         1 <1>         0.0237 
     61 H26         0.2722    2.7066    5.3696 H         1 <1>         0.0237 
     62 H27         2.9452    6.3413    1.6685 H         1 <1>         0.0235 
     63 H28         2.4184    7.3836    0.3664 H         1 <1>         0.0235 
     64 H29         4.0069    6.6033    0.2724 H         1 <1>         0.0235 
     65 H30         2.8587    7.5389   -1.9464 H         1 <1>         0.0327 
     66 H31         3.5795    6.4386   -4.0320 H         1 <1>         0.0622 
     67 H32         2.6478    8.9462   -3.9391 H         1 <1>         0.0622 
     68 H33         3.1596    7.3848   -6.4905 H         1 <1>         0.0326 
     69 H34        -0.7702   -0.6148    1.8874 H         1 <1>         0.0524 
     70 H35        -1.6339   -0.7962    3.4567 H         1 <1>         0.0524 
     71 H36        -0.9745   -2.2223    2.6114 H         1 <1>         0.0524 
     72 H37         6.1476   10.1303   -4.9055 H         1 <1>         0.0232 
     73 H38         4.4629   10.4142   -4.4128 H         1 <1>         0.0232 
     74 H39         4.9745   10.7267   -6.0972 H         1 <1>         0.0232 
     75 H40         5.5246    7.0614   -7.0154 H         1 <1>         0.0232 
     76 H41         6.7391    8.2699   -6.5344 H         1 <1>         0.0232 
     77 H42         5.4750    8.7058   -7.7093 H         1 <1>         0.0232 
     78 H43         0.5422    8.2334   -2.5726 H         1 <1>         0.0233 
     79 H44         0.4705    7.2765   -1.1093 H         1 <1>         0.0233 
     80 H45         0.0328    6.5252   -2.6662 H         1 <1>         0.0233 
     81 H46         1.9276    5.5593   -5.4512 H         1 <1>         0.2099 
     82 H47         0.6107    7.6649   -5.4730 H         1 <1>         0.2099 
     83 H48         1.6608    9.1517   -7.2211 H         1 <1>         0.0233 
     84 H49         3.2899    9.6397   -7.7059 H         1 <1>         0.0233 
     85 H50         2.5284   10.3752   -6.2661 H         1 <1>         0.0233 
@<TRIPOS>BOND
     1    1    2 1    
     2    2    3 1    
     3    4    3 1    
     4    5    4 1    
     5    6    5 1    
     6    6    1 1    
     7    7    6 1    
     8    8    7 1    
     9    8    9 1    
    10    9   10 1    
    11   10   11 1    
    12   11   12 2    
    13   11    5 1    
    14   13    7 1    
    15   14   13 1    
    16   15   14 1    
    17   15   16 1    
    18   16    8 1    
    19   16   17 1    
    20   18   17 1    
    21   19   18 1    
    22   19   15 1    
    23    2   20 1    
    24    3   21 1    
    25   28   22 1    
    26    6   23 1    
    27   15   24 1    
    28   25   19 1    
    29   26   25 1    
    30   27   26 1    
    31   27   28 1    
    32   20   29 1    
    33   22   30 1    
    34   22   31 1    
    35   25   32 1    
    36   26   33 1    
    37   27   34 1    
    38   28   35 1    
    39    1   36 1    
    40    1   37 1    
    41    2   38 1    
    42    3   39 1    
    43    4   40 1    
    44    4   41 1    
    45    5   42 1    
    46    7   43 1    
    47    8   44 1    
    48    9   45 1    
    49    9   46 1    
    50   13   47 1    
    51   13   48 1    
    52   14   49 1    
    53   14   50 1    
    54   16   51 1    
    55   17   52 1    
    56   17   53 1    
    57   18   54 1    
    58   18   55 1    
    59   19   56 1    
    60   21   57 1    
    61   22   58 1    
    62   23   59 1    
    63   23   60 1    
    64   23   61 1    
    65   24   62 1    
    66   24   63 1    
    67   24   64 1    
    68   25   65 1    
    69   26   66 1    
    70   27   67 1    
    71   28   68 1    
    72   29   69 1    
    73   29   70 1    
    74   29   71 1    
    75   30   72 1    
    76   30   73 1    
    77   30   74 1    
    78   31   75 1    
    79   31   76 1    
    80   31   77 1    
    81   32   78 1    
    82   32   79 1    
    83   32   80 1    
    84   33   81 1    
    85   34   82 1    
    86   35   83 1    
    87   35   84 1    
    88   35   85 1    
@<TRIPOS>SUBSTRUCTURE
     1 ****        2 TEMP              0 ****  ****    0 ROOT 
@<TRIPOS>NORMAL
@<TRIPOS>FF_PBC
FORCE_FIELD_SETUP_FEATURE Force Field Setup information
v1.0  0 0.000000 0.000000 0.000000 0.000000 0.000000 0.000000 NONE 0 0 0 0 1 0 0 0 0 0 0 0 0
