#	Name:			PISM00114
#	Creating user name:	baoopengkun
#	Creation time:		Mon Dec 17 14:05:23 2018

#	Modifying user name:	baoopengkun
#	Modification time:	Mon Dec 17 14:08:29 2018

@<TRIPOS>MOLECULE
PISM00114
   27    28     1     1     0
SMALL
GAST_HUCK


@<TRIPOS>ATOM
      1 N1          7.5952    7.5502   10.4144 N.2       1 <1>        -0.2760 
      2 O2          5.8930    6.3989   11.1904 O.3       1 <1>        -0.1735 
      3 C3          6.6571    6.7381   10.1494 C.2       1 <1>         0.3025 
      4 C4          6.4749    7.1072   12.1590 C.2       1 <1>         0.1826 
      5 N5          7.4702    7.8063   11.8001 N.2       1 <1>        -0.2863 
      6 C6          5.9212    7.0325   13.5519 C.3       1 <1>         0.0226 
      7 N7          6.3940    6.2190    8.9358 N.am      1 <1>        -0.1323 
      8 S8          7.2586    6.5952    7.5997 S.o2      1 <1>         0.0909 
      9 O9          6.4374    7.4444    6.7604 O.2       1 <1>        -0.1454 
     10 O10         8.5875    7.0267    7.9831 O.2       1 <1>        -0.1454 
     11 C11         7.4011    4.9908    6.8493 C.ar      1 <1>         0.1016 
     12 C12         8.0030    3.9521    7.5638 C.ar      1 <1>        -0.0465 
     13 C13         8.1193    2.6811    6.9934 C.ar      1 <1>        -0.0429 
     14 C14         7.6405    2.4363    5.7004 C.ar      1 <1>         0.0353 
     15 C15         7.0428    3.4832    4.9876 C.ar      1 <1>        -0.0429 
     16 C16         6.9251    4.7547    5.5569 C.ar      1 <1>        -0.0465 
     17 N17         7.7544    1.2036    5.1464 N.pl3     1 <1>        -0.3369 
     18 H1          4.9278    7.5033   13.5766 H         1 <1>         0.0475 
     19 H2          6.5887    7.5590   14.2501 H         1 <1>         0.0475 
     20 H3          5.8340    5.9803   13.8597 H         1 <1>         0.0475 
     21 H4          5.6095    5.6082    8.8524 H         1 <1>         0.2291 
     22 H5          8.3808    4.1372    8.5643 H         1 <1>         0.0602 
     23 H6          8.5860    1.8848    7.5643 H         1 <1>         0.0515 
     24 H7          6.6652    3.3156    3.9840 H         1 <1>         0.0515 
     25 H8          6.4638    5.5589    4.9935 H         1 <1>         0.0602 
     26 H9          8.1961    0.4317    5.6682 H         1 <1>         0.1719 
     27 H10         7.4033    1.0206    4.1943 H         1 <1>         0.1719 
@<TRIPOS>BOND
     1    3    1 2    
     2    3    2 1    
     3    2    4 1    
     4    4    5 2    
     5    1    5 1    
     6    4    6 1    
     7    3    7 am   
     8    7    8 1    
     9    8    9 2    
    10    8   10 2    
    11    8   11 1    
    12   11   12 ar   
    13   12   13 ar   
    14   13   14 ar   
    15   15   14 ar   
    16   16   15 ar   
    17   11   16 ar   
    18   14   17 1    
    19    6   18 1    
    20    6   19 1    
    21    6   20 1    
    22    7   21 1    
    23   12   22 1    
    24   13   23 1    
    25   15   24 1    
    26   16   25 1    
    27   17   26 1    
    28   17   27 1    
@<TRIPOS>SUBSTRUCTURE
     1 ****        3 TEMP              0 ****  ****    0 ROOT 
@<TRIPOS>NORMAL
@<TRIPOS>FF_PBC
FORCE_FIELD_SETUP_FEATURE Force Field Setup information
v1.0  0 0.000000 0.000000 0.000000 0.000000 0.000000 0.000000 NONE 0 0 0 0 1 0 0 0 0 0 0 0 0
