#	Name:			PISM00844.1
#	Creating user name:	baoopengkun
#	Creation time:		Thu Dec 13 14:40:19 2018

#	Modifying user name:	baoopengkun
#	Modification time:	Thu Dec 13 15:00:52 2018

@<TRIPOS>MOLECULE
PISM00844.1
   36    37     1     1     0
SMALL
GAST_HUCK


@<TRIPOS>ATOM
      1 C1         -9.2531   16.5607   10.2516 C.ar      1 <1>         0.0017 
      2 C2         -8.0163   15.9454   10.4671 C.ar      1 <1>        -0.0461 
      3 C3         -6.9102   16.2283    9.6500 C.ar      1 <1>        -0.0625 
      4 C4         -7.0977   17.1334    8.5943 C.ar      1 <1>        -0.0461 
      5 C5         -8.3321   17.7494    8.3697 C.ar      1 <1>         0.0017 
      6 C6         -9.4100   17.4784    9.2129 C.ar      1 <1>         0.1361 
      7 C7         -5.5109   15.5868    9.8674 C.3       1 <1>        -0.0569 
      8 O8        -10.6352   18.1155    9.0235 O.3       1 <1>        -0.2451 
      9 C9        -10.6752   19.4740    9.4858 C.3       1 <1>         0.2442 
     10 C10       -10.4548   19.5332   10.9798 C.2       1 <1>        -0.0003 
     11 C11       -11.5478   19.9782   11.5960 C.2       1 <1>         0.0293 
     12 C12       -12.4799   20.2239   10.5015 C.2       1 <1>         0.2496 
     13 O13       -12.0138   19.9683    9.2853 O.3       1 <1>        -0.2298 
     14 C14       -11.7694   20.1742   13.0709 C.3       1 <1>        -0.0323 
     15 O15       -13.6098   20.6430   10.6840 O.2       1 <1>        -0.3691 
     16 C16        -5.1161   14.7739    8.5986 C.3       1 <1>        -0.0904 
     17 C17        -5.4577   14.6107   11.0837 C.3       1 <1>        -0.0904 
     18 C18        -4.4658   16.7125   10.1274 C.3       1 <1>        -0.0904 
     19 H1        -10.0992   16.3305   10.8911 H         1 <1>         0.0651 
     20 H2         -7.9525   15.2446   11.2890 H         1 <1>         0.0823 
     21 H3         -6.2847   17.3785    7.9217 H         1 <1>         0.0823 
     22 H4         -8.4567   18.4375    7.5400 H         1 <1>         0.0651 
     23 H5         -9.9636   20.1201    8.9456 H         1 <1>         0.1218 
     24 H6         -9.5330   19.2477   11.4853 H         1 <1>         0.0706 
     25 H7        -11.4202   19.2900   13.6251 H         1 <1>         0.0347 
     26 H8        -12.8396   20.3245   13.2783 H         1 <1>         0.0347 
     27 H9        -11.2111   21.0584   13.4124 H         1 <1>         0.0347 
     28 H10        -5.0196   15.4110    7.7084 H         1 <1>         0.0117 
     29 H11        -5.8815   14.0097    8.3928 H         1 <1>         0.0117 
     30 H12        -4.1501   14.2669    8.7456 H         1 <1>         0.0117 
     31 H13        -4.4478   14.1879   11.2008 H         1 <1>         0.0117 
     32 H14        -6.1499   13.7662   10.9439 H         1 <1>         0.0117 
     33 H15        -5.7034   15.1340   12.0206 H         1 <1>         0.0117 
     34 H16        -3.4728   16.2832   10.3308 H         1 <1>         0.0117 
     35 H17        -4.7712   17.3098   11.0004 H         1 <1>         0.0117 
     36 H18        -4.3598   17.3898    9.2686 H         1 <1>         0.0117 
@<TRIPOS>BOND
     1    2    1 ar   
     2    2    3 ar   
     3    3    4 ar   
     4    4    5 ar   
     5    5    6 ar   
     6    1    6 ar   
     7    3    7 1    
     8    6    8 1    
     9    8    9 1    
    10    9   10 1    
    11   10   11 2    
    12   11   12 1    
    13   12   13 1    
    14    9   13 1    
    15   11   14 1    
    16   12   15 2    
    17    7   16 1    
    18    7   17 1    
    19    7   18 1    
    20    1   19 1    
    21    2   20 1    
    22    4   21 1    
    23    5   22 1    
    24    9   23 1    
    25   10   24 1    
    26   14   25 1    
    27   14   26 1    
    28   14   27 1    
    29   16   28 1    
    30   16   29 1    
    31   16   30 1    
    32   17   31 1    
    33   17   32 1    
    34   17   33 1    
    35   18   34 1    
    36   18   35 1    
    37   18   36 1    
@<TRIPOS>SUBSTRUCTURE
     1 ****        2 TEMP              0 ****  ****    0 ROOT 
@<TRIPOS>NORMAL
@<TRIPOS>FF_PBC
FORCE_FIELD_SETUP_FEATURE Force Field Setup information
v1.0  0 0.000000 0.000000 0.000000 0.000000 0.000000 0.000000 NONE 0 0 0 0 1 0 0 0 0 0 0 0 0
