#	Name:			PISM00214
#	Creating user name:	14062
#	Creation time:		Mon Apr 01 21:33:35 2019

#	Modifying user name:	14062
#	Modification time:	Mon Apr 01 21:33:55 2019

@<TRIPOS>MOLECULE
PISM00214
   40    42     1     2     0
SMALL
GAST_HUCK


@<TRIPOS>ATOM
      1 N1         -1.9128    2.4700    5.2947 N.pl3     1 <1>        -0.2884 
      2 C2         -3.2095    2.7154    5.0239 C.ar      1 <1>         0.0606 
      3 C3         -3.5055    2.2635    3.7508 C.ar      1 <1>        -0.0189 
      4 C4         -4.7859    2.3736    3.2084 C.ar      1 <1>        -0.0745 
      5 C5         -5.7667    2.9689    4.0129 C.ar      1 <1>        -0.0792 
      6 C6         -5.4629    3.4448    5.2979 C.ar      1 <1>        -0.0767 
      7 C7         -2.1789    1.7197    3.2788 C.2       1 <1>        -0.0209 
      8 C8         -1.3105    1.8877    4.2905 C.2       1 <1>         0.0197 
      9 C9         -4.1712    3.3220    5.8300 C.ar      1 <1>        -0.0442 
     10 C10        -1.9108    1.1183    1.9164 C.3       1 <1>         0.0912 
     11 C11        -1.5856   -0.3513    1.9884 C.2       1 <1>         0.2417 
     12 O12        -1.5713   -1.0375    0.9791 O.2       1 <1>        -0.3685 
     13 O13        -1.3160   -0.8566    3.1916 O.3       1 <1>        -0.2916 
     14 C14        -0.8243    1.9158    1.1339 C.3       1 <1>         0.0465 
     15 C15         0.5532    1.3013    1.2183 C.2       1 <1>         0.1316 
     16 O16         1.1120    1.3088    2.3029 O.2       1 <1>        -0.3815 
     17 C17         1.2864    0.7142    0.0254 C.ar      1 <1>         0.0258 
     18 C18         2.6814    0.6152    0.0787 C.ar      1 <1>        -0.0496 
     19 C19         3.4193    0.2783   -1.0603 C.ar      1 <1>        -0.0544 
     20 C20         2.7634    0.0370   -2.2720 C.ar      1 <1>        -0.0410 
     21 C21         1.3662   -0.0231   -2.2854 C.ar      1 <1>        -0.0544 
     22 C22         0.6323    0.2746   -1.1323 C.ar      1 <1>        -0.0496 
     23 C23         3.5464   -0.1550   -3.5759 C.3       1 <1>        -0.0287 
     24 H1         -1.4539    2.7164    6.1835 H         1 <1>         0.2219 
     25 H2         -5.0150    2.0143    2.2113 H         1 <1>         0.0540 
     26 H3         -6.7790    3.0631    3.6331 H         1 <1>         0.0510 
     27 H4         -6.2395    3.9181    5.8895 H         1 <1>         0.0530 
     28 H5         -0.2621    1.5904    4.2827 H         1 <1>         0.0804 
     29 H6         -3.9282    3.6816    6.8246 H         1 <1>         0.0541 
     30 H7         -2.8596    1.1850    1.3644 H         1 <1>         0.0659 
     31 H8         -1.1320   -1.7876    3.1369 H         1 <1>         0.2540 
     32 H9         -0.7559    2.9405    1.5359 H         1 <1>         0.0526 
     33 H10        -1.1180    2.0173    0.0775 H         1 <1>         0.0526 
     34 H11         3.2052    0.8086    1.0091 H         1 <1>         0.0655 
     35 H12         4.5023    0.2161   -0.9996 H         1 <1>         0.0571 
     36 H13         0.8471   -0.3043   -3.1982 H         1 <1>         0.0571 
     37 H14        -0.4449    0.1537   -1.1524 H         1 <1>         0.0655 
     38 H15         4.6236    0.0197   -3.4388 H         1 <1>         0.0402 
     39 H16         3.1728    0.5632   -4.3208 H         1 <1>         0.0402 
     40 H17         3.3978   -1.1773   -3.9514 H         1 <1>         0.0402 
@<TRIPOS>BOND
     1    8    1 1    
     2    1    2 1    
     3    2    3 ar   
     4    3    7 1    
     5    3    4 ar   
     6    4    5 ar   
     7    5    6 ar   
     8    7    8 2    
     9    6    9 ar   
    10    2    9 ar   
    11    7   10 1    
    12   10   11 1    
    13   11   12 2    
    14   11   13 1    
    15   10   14 1    
    16   14   15 1    
    17   15   16 2    
    18   15   17 1    
    19   17   18 ar   
    20   18   19 ar   
    21   19   20 ar   
    22   20   21 ar   
    23   21   22 ar   
    24   17   22 ar   
    25   20   23 1    
    26    1   24 1    
    27    4   25 1    
    28    5   26 1    
    29    6   27 1    
    30    8   28 1    
    31    9   29 1    
    32   10   30 1    
    33   13   31 1    
    34   14   32 1    
    35   14   33 1    
    36   18   34 1    
    37   19   35 1    
    38   21   36 1    
    39   22   37 1    
    40   23   38 1    
    41   23   39 1    
    42   23   40 1    
@<TRIPOS>SUBSTRUCTURE
     1 ****        7 TEMP              0 ****  ****    0 ROOT 
@<TRIPOS>NORMAL
@<TRIPOS>FF_PBC
FORCE_FIELD_SETUP_FEATURE Force Field Setup information
v1.0  0 0.000000 0.000000 0.000000 0.000000 0.000000 0.000000 NONE 0 0 0 0 1 0 0 0 0 0 0 0 0
@<TRIPOS>RENDERING_ATTRS
ANTIALIASED_LINES 
*
