#	Name:			PISM00650
#	Creating user name:	baoopengkun
#	Creation time:		Sat Jan 12 19:29:01 2019

#	Modifying user name:	baoopengkun
#	Modification time:	Sat Jan 12 19:34:28 2019

@<TRIPOS>MOLECULE
PISM00650
   28    28     1     1     0
SMALL
GAST_HUCK


@<TRIPOS>ATOM
      1 Cl1       -10.7723   -0.0060   -0.2263 Cl        1 <1>        -0.0722 
      2 C2         -9.0204   -0.0417   -0.2251 C.ar      1 <1>         0.0547 
      3 C3         -8.3313   -0.9982    0.5247 C.ar      1 <1>         0.0116 
      4 N4         -6.9823   -1.0280    0.5185 N.ar      1 <1>        -0.2802 
      5 C5         -6.2553   -0.1724   -0.2301 C.ar      1 <1>         0.1352 
      6 C6         -6.8970    0.8365   -0.9597 C.ar      1 <1>        -0.0110 
      7 C7         -8.2939    0.8880   -0.9723 C.ar      1 <1>        -0.0388 
      8 N8         -4.9108   -0.3343   -0.2133 N.pl3     1 <1>        -0.2223 
      9 C9         -4.1594   -0.1507   -1.2670 C.2       1 <1>         0.2122 
     10 O10        -4.5990    0.1701   -2.3585 O.2       1 <1>        -0.3755 
     11 C11        -2.0804    0.7790   -0.3186 C.2       1 <1>        -0.0763 
     12 C12         1.1747   -0.2174    1.1145 C.2       1 <1>         0.2395 
     13 O13         2.0593   -0.4444    0.3045 O.2       1 <1>        -0.3680 
     14 O14         1.4202    0.3679    2.2873 O.3       1 <1>        -0.2915 
     15 C15        -2.6668   -0.3465   -1.1401 C.3       1 <1>         0.0602 
     16 C16        -0.2641   -0.5698    0.8451 C.3       1 <1>         0.0655 
     17 C17        -1.0569    0.6812    0.5439 C.2       1 <1>        -0.0757 
     18 H1         -8.8807   -1.7229    1.1156 H         1 <1>         0.0792 
     19 H2         -6.3307    1.5830   -1.5042 H         1 <1>         0.0624 
     20 H3         -8.8108    1.6439   -1.5551 H         1 <1>         0.0708 
     21 H4         -4.4821   -0.6488    0.6688 H         1 <1>         0.2155 
     22 H5         -2.5374    1.7628   -0.4501 H         1 <1>         0.0483 
     23 H6          2.3450    0.5669    2.3825 H         1 <1>         0.2540 
     24 H7         -2.2082   -0.3218   -2.1412 H         1 <1>         0.0632 
     25 H8         -2.4938   -1.3411   -0.7060 H         1 <1>         0.0632 
     26 H9         -0.6785   -1.0528    1.7429 H         1 <1>         0.0639 
     27 H10        -0.2772   -1.2905    0.0152 H         1 <1>         0.0639 
     28 H11        -0.7633    1.5855    1.0821 H         1 <1>         0.0483 
@<TRIPOS>BOND
     1    2    1 1    
     2    3    2 ar   
     3    4    3 ar   
     4    5    4 ar   
     5    5    6 ar   
     6    6    7 ar   
     7    7    2 ar   
     8    8    5 1    
     9    9    8 1    
    10    9   10 2    
    11   11   15 1    
    12   17   11 2    
    13   12   13 2    
    14   12   14 1    
    15   15    9 1    
    16   16   12 1    
    17   16   17 1    
    18    3   18 1    
    19    6   19 1    
    20    7   20 1    
    21    8   21 1    
    22   11   22 1    
    23   14   23 1    
    24   15   24 1    
    25   15   25 1    
    26   16   26 1    
    27   16   27 1    
    28   17   28 1    
@<TRIPOS>SUBSTRUCTURE
     1 ****       12 TEMP              0 ****  ****    0 ROOT 
@<TRIPOS>NORMAL
@<TRIPOS>FF_PBC
FORCE_FIELD_SETUP_FEATURE Force Field Setup information
v1.0  0 0.000000 0.000000 0.000000 0.000000 0.000000 0.000000 NONE 0 0 0 0 1 0 0 0 0 0 0 0 0
