#	Name:			PISM00474
#	Creating user name:	baoopengkun
#	Creation time:		Wed Feb 27 21:56:57 2019

#	Modifying user name:	baoopengkun
#	Modification time:	Wed Feb 27 21:57:59 2019

@<TRIPOS>MOLECULE
PISM00474
   22    22     1     1     0
SMALL
GAST_HUCK


@<TRIPOS>ATOM
      1 C1         20.3916    5.8301  -18.0145 C.3       1 <1>        -0.0365 
      2 C2         19.1974    4.9036  -17.9492 C.2       1 <1>        -0.0987 
      3 C3         18.5651    4.5206  -16.8327 C.2       1 <1>        -0.0987 
      4 C4         18.9777    4.9297  -15.4414 C.3       1 <1>        -0.0365 
      5 C5         20.1583    4.0192  -14.9948 C.3       1 <1>        -0.0464 
      6 C6         21.4932    4.7792  -14.7617 C.3       1 <1>        -0.0514 
      7 C7         21.9264    5.7889  -15.8680 C.3       1 <1>        -0.0514 
      8 C8         21.7144    5.3327  -17.3462 C.3       1 <1>        -0.0464 
      9 H1         20.0988    6.8231  -17.6411 H         1 <1>         0.0388 
     10 H2         20.5957    5.9623  -19.0919 H         1 <1>         0.0388 
     11 H3         18.8057    4.5115  -18.8917 H         1 <1>         0.0450 
     12 H4         17.7074    3.8503  -16.9263 H         1 <1>         0.0450 
     13 H5         18.1116    4.7927  -14.7720 H         1 <1>         0.0388 
     14 H6         19.2301    5.9980  -15.4051 H         1 <1>         0.0388 
     15 H7         20.3331    3.2202  -15.7352 H         1 <1>         0.0285 
     16 H8         19.8942    3.5090  -14.0519 H         1 <1>         0.0285 
     17 H9         22.2824    4.0159  -14.6409 H         1 <1>         0.0267 
     18 H10        21.4262    5.3317  -13.8084 H         1 <1>         0.0267 
     19 H11        23.0052    5.9604  -15.6998 H         1 <1>         0.0267 
     20 H12        21.4477    6.7680  -15.7101 H         1 <1>         0.0267 
     21 H13        21.8257    4.2425  -17.4523 H         1 <1>         0.0285 
     22 H14        22.5374    5.7935  -17.9223 H         1 <1>         0.0285 
@<TRIPOS>BOND
     1    2    1 1    
     2    2    3 2    
     3    3    4 1    
     4    4    5 1    
     5    5    6 1    
     6    6    7 1    
     7    7    8 1    
     8    1    8 1    
     9    1    9 1    
    10    1   10 1    
    11    2   11 1    
    12    3   12 1    
    13    4   13 1    
    14    4   14 1    
    15    5   15 1    
    16    5   16 1    
    17    6   17 1    
    18    6   18 1    
    19    7   19 1    
    20    7   20 1    
    21    8   21 1    
    22    8   22 1    
@<TRIPOS>SUBSTRUCTURE
     1 ****        2 TEMP              0 ****  ****    0 ROOT 
@<TRIPOS>NORMAL
@<TRIPOS>FF_PBC
FORCE_FIELD_SETUP_FEATURE Force Field Setup information
v1.0  0 0.000000 0.000000 0.000000 0.000000 0.000000 0.000000 NONE 0 0 0 0 1 0 0 0 0 0 0 0 0
