#	Name:			PISM00592
#	Creating user name:	baoopengkun
#	Creation time:		Mon Dec 10 12:09:39 2018

#	Modifying user name:	baoopengkun
#	Modification time:	Mon Dec 10 12:09:52 2018

@<TRIPOS>MOLECULE
PISM00592
   36    38     1     2     0
SMALL
GAST_HUCK


@<TRIPOS>ATOM
      1 C1         -2.4242   10.3263   -1.0151 C.ar      1 <1>        -0.0348 
      2 C2         -1.8550    9.6723    0.0811 C.ar      1 <1>        -0.0180 
      3 C3         -2.1964   10.0597    1.3797 C.ar      1 <1>         0.0714 
      4 C4         -3.1094   11.0986    1.5805 C.ar      1 <1>        -0.0180 
      5 C5         -3.6806   11.7504    0.4837 C.ar      1 <1>        -0.0348 
      6 C6         -3.3334   11.3708   -0.8169 C.ar      1 <1>         0.0069 
      7 C7         -3.9477   12.0849   -2.0276 C.3       1 <1>         0.1923 
      8 C8         -5.2258   11.3367   -2.4655 C.3       1 <1>         0.1073 
      9 N9         -4.9675    9.9075   -2.5764 N.pl3     1 <1>        -0.1814 
     10 N10        -4.5266    9.2437   -3.6814 N.2       1 <1>        -0.1908 
     11 C11        -4.4039    7.9820   -3.4959 C.2       1 <1>         0.0618 
     12 N12        -4.8277    7.8684   -2.1275 N.2       1 <1>        -0.2870 
     13 C13        -5.1379    8.9944   -1.6692 C.2       1 <1>         0.1270 
     14 O14        -4.2308   13.4619   -1.7378 O.3       1 <1>        -0.3784 
     15 C15        -3.0498   14.2317   -2.0137 C.3       1 <1>         0.0726 
     16 C16        -2.0898   13.2324   -2.7085 C.3       1 <1>         0.0726 
     17 O17        -3.0076   12.2109   -3.1020 O.3       1 <1>        -0.3784 
     18 Cl18       -1.4811    9.2432    2.7546 Cl        1 <1>        -0.0420 
     19 H1         -2.1630   10.0196   -2.0238 H         1 <1>         0.0849 
     20 H2         -1.1487    8.8632   -0.0747 H         1 <1>         0.0703 
     21 H3         -3.3738   11.3975    2.5897 H         1 <1>         0.0703 
     22 H4         -4.3951   12.5520    0.6435 H         1 <1>         0.0849 
     23 H5         -5.5508   11.7317   -3.4393 H         1 <1>         0.0595 
     24 H6         -6.0209   11.5240   -1.7280 H         1 <1>         0.0595 
     25 H7         -4.0712    7.2095   -4.1876 H         1 <1>         0.0863 
     26 H8         -5.4944    9.1602   -0.6533 H         1 <1>         0.1361 
     27 C27        -2.4603   14.8540   -0.7246 C.3       1 <1>        -0.0373 
     28 C28        -1.3423   13.8117   -3.9326 C.3       1 <1>        -0.0373 
     29 H9         -3.3588   15.0281   -2.7101 H         1 <1>         0.0608 
     30 H10        -1.3652   12.8135   -1.9897 H         1 <1>         0.0608 
     31 H11        -1.5608   15.4403   -0.9668 H         1 <1>         0.0255 
     32 H12        -2.1910   14.0713   -0.0004 H         1 <1>         0.0255 
     33 H13        -3.2061   15.5179   -0.2614 H         1 <1>         0.0255 
     34 H14        -0.7173   13.0291   -4.3893 H         1 <1>         0.0255 
     35 H15        -0.6999   14.6500   -3.6228 H         1 <1>         0.0255 
     36 H16        -2.0628   14.1676   -4.6846 H         1 <1>         0.0255 
@<TRIPOS>BOND
     1    2    1 ar   
     2    2    3 ar   
     3    3    4 ar   
     4    4    5 ar   
     5    5    6 ar   
     6    1    6 ar   
     7    6    7 1    
     8    7    8 1    
     9    8    9 1    
    10    9   10 1    
    11   10   11 2    
    12   11   12 1    
    13   12   13 2    
    14    9   13 1    
    15    7   14 1    
    16   14   15 1    
    17   15   16 1    
    18   16   17 1    
    19    7   17 1    
    20    3   18 1    
    21    1   19 1    
    22    2   20 1    
    23    4   21 1    
    24    5   22 1    
    25    8   23 1    
    26    8   24 1    
    27   11   25 1    
    28   13   26 1    
    29   15   27 1    
    30   16   28 1    
    31   15   29 1    
    32   16   30 1    
    33   27   31 1    
    34   27   32 1    
    35   27   33 1    
    36   28   34 1    
    37   28   35 1    
    38   28   36 1    
@<TRIPOS>SUBSTRUCTURE
     1 ****        2 TEMP              0 ****  ****    0 ROOT 
@<TRIPOS>NORMAL
@<TRIPOS>FF_PBC
FORCE_FIELD_SETUP_FEATURE Force Field Setup information
v1.0  0 0.000000 0.000000 0.000000 0.000000 0.000000 0.000000 NONE 0 0 0 0 1 0 0 0 0 0 0 0 0
@<TRIPOS>RENDERING_ATTRS
ANTIALIASED_LINES 
*
