#	Name:			PISM00316.1
#	Creating user name:	malab
#	Creation time:		Fri Apr 05 16:56:34 2019

#	Modifying user name:	malab
#	Modification time:	Fri Apr 05 16:57:45 2019

@<TRIPOS>MOLECULE
PISM00316.1
   41    43     1     1     0
SMALL
GAST_HUCK


@<TRIPOS>ATOM
      1 C1        -10.4645   -2.7334    1.5098 C.ar      1 <1>        -0.0574 
      2 C2        -11.0944   -2.0832    2.5751 C.ar      1 <1>         0.0308 
      3 C3        -11.7475   -0.8665    2.3644 C.ar      1 <1>        -0.0574 
      4 C4        -11.7824   -0.3067    1.0843 C.ar      1 <1>        -0.0680 
      5 C5        -11.1202   -0.9366    0.0259 C.ar      1 <1>        -0.0521 
      6 C6        -10.4760   -2.1601    0.2336 C.ar      1 <1>        -0.0680 
      7 Cl7       -11.0651   -2.7900    4.1775 Cl        1 <1>        -0.0786 
      8 C8        -11.1589   -0.3277   -1.3562 C.2       1 <1>        -0.0367 
      9 C9        -10.2296    0.3440   -2.0653 C.2       1 <1>         0.1198 
     10 C10        -8.8173    0.7568   -1.5916 C.3       1 <1>         0.1625 
     11 C11        -8.3006    1.0315   -0.1252 C.3       1 <1>         0.1027 
     12 O12        -7.3389    1.1283   -4.0979 O.3       1 <1>        -0.3496 
     13 C13        -8.1965   -0.2427    0.7733 C.3       1 <1>        -0.0066 
     14 C14        -6.8409    1.6048   -0.2101 C.3       1 <1>         0.0000 
     15 O15        -8.5113    2.0187   -2.2201 O.3       1 <1>        -0.3065 
     16 C16        -8.4233    1.9498   -3.6419 C.3       1 <1>         0.2417 
     17 H1         -9.9633   -3.6803    1.6770 H         1 <1>         0.0000 
     18 C18        -9.7226    1.3778   -4.0842 C.2       1 <1>         0.1929 
     19 N19       -10.5065    0.6777   -3.3191 N.pl3     1 <1>        -0.1909 
     20 C20       -11.5738    0.3731   -4.0464 C.2       1 <1>         0.0487 
     21 C21       -11.4784    0.8659   -5.2986 C.2       1 <1>        -0.0309 
     22 N22       -10.2074    1.5234   -5.2283 N.2       1 <1>        -0.3286 
     23 H2        -12.2263   -0.3604    3.1965 H         1 <1>         0.0000 
     24 H3        -12.3303    0.6145    0.9116 H         1 <1>         0.0000 
     25 C25        -9.1823    2.1122    0.5633 C.3       1 <1>        -0.3858 
     26 H4         -9.9875   -2.6637   -0.5942 H         1 <1>         0.0000 
     27 H5        -12.1537   -0.5519   -1.7207 H         1 <1>         0.0000 
     28 H6         -8.1491   -0.0225   -1.9932 H         1 <1>         0.0000 
     29 H7         -6.5006    1.4602   -3.7944 H         1 <1>         0.0000 
     30 H8         -8.0205   -1.1402    0.1642 H         1 <1>         0.0000 
     31 H9         -9.0940   -0.3622    1.3859 H         1 <1>         0.0000 
     32 H10        -7.3776   -0.1899    1.5064 H         1 <1>         0.0000 
     33 H11        -6.7790    2.5646   -0.7446 H         1 <1>         0.0000 
     34 H12        -6.1824    0.8878   -0.7267 H         1 <1>         0.0000 
     35 H13        -6.4219    1.7914    0.7918 H         1 <1>         0.0000 
     36 H14        -8.3265    2.9769   -4.0287 H         1 <1>         0.0000 
     37 H15       -12.4747   -0.1948   -3.8255 H         1 <1>         0.0000 
     38 H16       -12.1649    0.7919   -6.1414 H         1 <1>         0.0000 
     39 H17       -10.2318    1.7984    0.5713 H         1 <1>         0.0000 
     40 H18        -9.1238    3.0720    0.0292 H         1 <1>         0.0000 
     41 H19        -8.8557    2.2717    1.6040 H         1 <1>         0.0000 
@<TRIPOS>BOND
     1    1    2 ar   
     2    3    2 ar   
     3    4    3 ar   
     4    5    4 ar   
     5    5    6 ar   
     6    6    1 ar   
     7    2    7 1    
     8    8    5 1    
     9    9    8 2    
    10   10    9 1    
    11   10   11 1    
    12   16   12 1    
    13   11   13 1    
    14   11   14 1    
    15   15   10 1    
    16   15   16 1    
    17    1   17 1    
    18   16   18 1    
    19   18   19 1    
    20    9   19 1    
    21   19   20 1    
    22   20   21 2    
    23   21   22 1    
    24   18   22 2    
    25    3   23 1    
    26    4   24 1    
    27   11   25 1    
    28    6   26 1    
    29    8   27 1    
    30   10   28 1    
    31   12   29 1    
    32   13   30 1    
    33   13   31 1    
    34   13   32 1    
    35   14   33 1    
    36   14   34 1    
    37   14   35 1    
    38   16   36 1    
    39   20   37 1    
    40   21   38 1    
    41   25   39 1    
    42   25   40 1    
    43   25   41 1    
@<TRIPOS>SUBSTRUCTURE
     1 ****        2 TEMP              0 ****  ****    0 ROOT 
@<TRIPOS>NORMAL
@<TRIPOS>FF_PBC
FORCE_FIELD_SETUP_FEATURE Force Field Setup information
v1.0  0 0.000000 0.000000 0.000000 0.000000 0.000000 0.000000 NONE 0 0 0 0 0 0 0 0 0 0 0 0 0
