#	Name:			PISM00018
#	Creating user name:	baoopengkun
#	Creation time:		Sat Nov 17 16:25:40 2018

#	Modifying user name:	baoopengkun
#	Modification time:	Sat Nov 17 16:32:35 2018

@<TRIPOS>MOLECULE
PISM00018
   41    41     1     2     0
SMALL
GAST_HUCK


@<TRIPOS>ATOM
      1 C1         -6.3916   -3.5828    6.8328 C.3       1 <1>         0.3418 
      2 F2         -7.2955   -3.6919    7.8418 F         1 <1>        -0.2466 
      3 F3         -5.2032   -3.1603    7.3418 F         1 <1>        -0.2466 
      4 F4         -6.2100   -4.8039    6.2616 F         1 <1>        -0.2466 
      5 C5         -6.9142   -2.5674    5.8093 C.ar      1 <1>        -0.0045 
      6 C6         -7.5728   -2.9863    4.6507 C.ar      1 <1>        -0.0316 
      7 C7         -8.0061   -2.0614    3.6933 C.ar      1 <1>         0.1639 
      8 C8         -7.7897   -0.6908    3.9130 C.ar      1 <1>         0.1413 
      9 C9         -7.1847   -0.2558    5.1024 C.ar      1 <1>         0.1639 
     10 C10        -6.7356   -1.2005    6.0321 C.ar      1 <1>        -0.0316 
     11 N11        -7.0254    1.0642    5.3761 N.pl3     1 <1>         0.0347 
     12 O12        -6.1204    1.4340    6.0933 O.2       1 <1>        -0.1281 
     13 O13        -7.9021    2.0287    4.8613 O.3       1 <1>        -0.2408 
     14 N14        -8.1604    0.2100    2.9685 N.pl3     1 <1>        -0.2897 
     15 C15        -9.5396    0.7101    2.9155 C.3       1 <1>         0.0331 
     16 C16       -10.4574    0.1793    4.0520 C.3       1 <1>        -0.0346 
     17 C17       -11.8798    0.7915    3.9632 C.3       1 <1>        -0.0633 
     18 C18        -7.2182    0.5464    1.8960 C.3       1 <1>         0.0331 
     19 C19        -6.3711    1.7935    2.2560 C.3       1 <1>        -0.0346 
     20 C20        -5.4019    2.1731    1.1059 C.3       1 <1>        -0.0633 
     21 N21        -8.6270   -2.5172    2.5730 N.pl3     1 <1>         0.0347 
     22 O22        -8.7768   -1.8143    1.5995 O.2       1 <1>        -0.1281 
     23 O23        -9.1208   -3.8306    2.5160 O.3       1 <1>        -0.2408 
     24 H1         -7.7435   -4.0463    4.4987 H         1 <1>         0.0580 
     25 H2         -6.2473   -0.8755    6.9452 H         1 <1>         0.0580 
     26 H3         -8.2432    2.5800    5.5573 H         1 <1>         0.2520 
     27 H4         -9.9915    0.4268    1.9513 H         1 <1>         0.0533 
     28 H5         -9.5132    1.8103    2.9555 H         1 <1>         0.0533 
     29 H6        -10.0245    0.4315    5.0335 H         1 <1>         0.0283 
     30 H7        -10.5395   -0.9177    3.9800 H         1 <1>         0.0283 
     31 H8        -12.5129    0.3981    4.7744 H         1 <1>         0.0230 
     32 H9        -12.3488    0.5376    2.9997 H         1 <1>         0.0230 
     33 H10       -11.8340    1.8878    4.0566 H         1 <1>         0.0230 
     34 H11        -7.7662    0.7437    0.9603 H         1 <1>         0.0533 
     35 H12        -6.5405   -0.3025    1.7042 H         1 <1>         0.0533 
     36 H13        -5.7819    1.5869    3.1635 H         1 <1>         0.0283 
     37 H14        -7.0414    2.6444    2.4592 H         1 <1>         0.0283 
     38 H15        -4.8090    3.0579    1.3873 H         1 <1>         0.0230 
     39 H16        -5.9646    2.4070    0.1887 H         1 <1>         0.0230 
     40 H17        -4.7110    1.3420    0.8949 H         1 <1>         0.0230 
     41 H18        -8.7518   -4.2978    1.7739 H         1 <1>         0.2520 
@<TRIPOS>BOND
     1    2    1 1    
     2    1    3 1    
     3    1    4 1    
     4    1    5 1    
     5    5    6 ar   
     6    6    7 ar   
     7    7    8 ar   
     8    8    9 ar   
     9    9   10 ar   
    10    5   10 ar   
    11    9   11 1    
    12   11   12 2    
    13   11   13 1    
    14    8   14 1    
    15   14   15 1    
    16   15   16 1    
    17   16   17 1    
    18   14   18 1    
    19   18   19 1    
    20   19   20 1    
    21    7   21 1    
    22   21   22 2    
    23   21   23 1    
    24    6   24 1    
    25   10   25 1    
    26   13   26 1    
    27   15   27 1    
    28   15   28 1    
    29   16   29 1    
    30   16   30 1    
    31   17   31 1    
    32   17   32 1    
    33   17   33 1    
    34   18   34 1    
    35   18   35 1    
    36   19   36 1    
    37   19   37 1    
    38   20   38 1    
    39   20   39 1    
    40   20   40 1    
    41   23   41 1    
@<TRIPOS>SUBSTRUCTURE
     1 ****        2 TEMP              0 ****  ****    0 ROOT 
@<TRIPOS>NORMAL
@<TRIPOS>FF_PBC
FORCE_FIELD_SETUP_FEATURE Force Field Setup information
v1.0  0 0.000000 0.000000 0.000000 0.000000 0.000000 0.000000 NONE 0 0 0 0 1 0 0 0 0 0 0 0 0
@<TRIPOS>RENDERING_ATTRS
ANTIALIASED_LINES 
*
