#	Name:			PISM00418
#	Creating user name:	malab
#	Creation time:		Tue Apr 09 23:41:05 2019

#	Modifying user name:	malab
#	Modification time:	Tue Apr 09 23:48:39 2019

@<TRIPOS>MOLECULE
PISM00418
   39    39     1     2     0
SMALL
USER_CHARGES


@<TRIPOS>ATOM
      1 C1         -8.6015   -3.9553   -4.9038 C.3       1 <1>         0.0000 
      2 C2         -8.1098   -5.4278   -4.8389 C.3       1 <1>         0.0000 
      3 C3         -6.6335   -5.4897   -5.1069 C.2       1 <1>         0.0000 
      4 C4         -5.7580   -4.3278   -4.8676 C.2       1 <1>         0.0000 
      5 C5         -6.2377   -3.1894   -4.3364 C.2       1 <1>         0.0000 
      6 C6         -7.7134   -3.0665   -3.9740 C.3       1 <1>         0.0000 
      7 O7         -6.1502   -6.5254   -5.5356 O.2       1 <1>         0.0000 
      8 C8         -5.3726   -1.9785   -4.0456 C.3       1 <1>         0.0000 
      9 C9        -10.0950   -3.9072   -4.4589 C.3       1 <1>         0.0000 
     10 C10        -8.5121   -3.4353   -6.3732 C.3       1 <1>         0.0000 
     11 Br11       -3.9323   -4.5212   -5.3443 Br        1 <1>         0.0000 
     12 H1         -8.6457   -6.0302   -5.5896 H         1 <1>         0.0000 
     13 H2         -8.2965   -5.8786   -3.8525 H         1 <1>         0.0000 
     14 O14        -8.2002   -1.7185   -4.1434 O.3       1 <1>         0.0000 
     15 C15        -7.8328   -3.5113   -2.5297 C.2       1 <1>         0.0000 
     16 H3         -4.2942   -2.1481   -4.1572 H         1 <1>         0.0000 
     17 H4         -5.5345   -1.6574   -3.0056 H         1 <1>         0.0000 
     18 H5         -5.6494   -1.1588   -4.7253 H         1 <1>         0.0000 
     19 C19        -8.6737   -2.9626   -1.6428 C.2       1 <1>         0.0000 
     20 C20        -8.7693   -3.4296   -0.2443 C.2       1 <1>         0.0000 
     21 C21        -8.8153   -2.5731    0.7878 C.2       1 <1>         0.0000 
     22 C22        -8.7302   -1.0997    0.7127 C.2       1 <1>         0.0000 
     23 C23        -8.8298   -4.9181    0.0139 C.3       1 <1>         0.0000 
     24 O24        -9.0130   -0.4446    1.7051 O.2       1 <1>         0.0000 
     25 O25        -8.3366   -0.5022   -0.4177 O.3       1 <1>         0.0000 
     26 H6        -10.7171   -4.5021   -5.1451 H         1 <1>         0.0000 
     27 H7        -10.4737   -2.8740   -4.4634 H         1 <1>         0.0000 
     28 H8        -10.2285   -4.3192   -3.4479 H         1 <1>         0.0000 
     29 H9         -7.4775   -3.4353   -6.7457 H         1 <1>         0.0000 
     30 H10        -8.8990   -2.4080   -6.4509 H         1 <1>         0.0000 
     31 H11        -9.1108   -4.0690   -7.0452 H         1 <1>         0.0000 
     32 H12        -7.8085   -1.0744   -3.5645 H         1 <1>         0.0000 
     33 H13        -7.1949   -4.3300   -2.1941 H         1 <1>         0.0000 
     34 H14        -9.3310   -2.1471   -1.9411 H         1 <1>         0.0000 
     35 H15        -8.9172   -2.9826    1.7936 H         1 <1>         0.0000 
     36 H16        -9.1122   -5.4671   -0.8976 H         1 <1>         0.0000 
     37 H17        -9.5733   -5.1535    0.7908 H         1 <1>         0.0000 
     38 H18        -7.8421   -5.2697    0.3474 H         1 <1>         0.0000 
     39 H19        -8.3121    0.4474   -0.3614 H         1 <1>         0.0000 
@<TRIPOS>BOND
     1    2    1 1    
     2    2    3 1    
     3    3    4 1    
     4    4    5 2    
     5    5    6 1    
     6    1    6 1    
     7    3    7 2    
     8    5    8 1    
     9    1    9 1    
    10    1   10 1    
    11    4   11 1    
    12    2   12 1    
    13    2   13 1    
    14    6   14 1    
    15    6   15 1    
    16    8   16 1    
    17    8   17 1    
    18    8   18 1    
    19   15   19 2    
    20   19   20 1    
    21   20   21 2    
    22   21   22 1    
    23   20   23 1    
    24   22   24 2    
    25   22   25 1    
    26    9   26 1    
    27    9   27 1    
    28    9   28 1    
    29   10   29 1    
    30   10   30 1    
    31   10   31 1    
    32   14   32 1    
    33   15   33 1    
    34   19   34 1    
    35   21   35 1    
    36   23   36 1    
    37   23   37 1    
    38   23   38 1    
    39   25   39 1    
@<TRIPOS>SUBSTRUCTURE
     1 ****        2 TEMP              0 ****  ****    0 ROOT 
@<TRIPOS>NORMAL
@<TRIPOS>FF_PBC
FORCE_FIELD_SETUP_FEATURE Force Field Setup information
v1.0  0 0.000000 0.000000 0.000000 0.000000 0.000000 0.000000 NONE 0 0 0 0 0 0 0 0 0 0 0 0 0
@<TRIPOS>RENDERING_ATTRS
ANTIALIASED_LINES 
*
