#	Name:			PISM01018
#	Creating user name:	malab
#	Creation time:		Mon Jul 01 22:14:48 2019

#	Modifying user name:	malab
#	Modification time:	Mon Jul 01 22:21:29 2019

@<TRIPOS>MOLECULE
PISM01018
   34    36     1     1     0
SMALL
GAST_HUCK


@<TRIPOS>ATOM
      1 C1          5.7914   18.1347   29.5526 C.ar      1 <1>        -0.0436 
      2 C2          5.3360   19.3958   29.1567 C.ar      1 <1>        -0.0597 
      3 C3          5.0233   19.6386   27.8174 C.ar      1 <1>         0.0261 
      4 C4          5.1772   18.6189   26.8756 C.ar      1 <1>        -0.0597 
      5 C5          5.6525   17.3652   27.2717 C.ar      1 <1>        -0.0436 
      6 C6          5.9570   17.1077   28.6146 C.ar      1 <1>         0.0408 
      7 N7          6.4064   15.8836   28.9994 N.pl3     1 <1>        -0.3047 
      8 C8          7.4707   15.7618   29.9948 C.3       1 <1>         0.0473 
      9 C9          8.2183   14.4136   29.8384 C.3       1 <1>         0.0561 
     10 N10         7.2376   13.3341   29.9825 N.am      1 <1>        -0.2392 
     11 C11         5.8977   13.4860   29.4140 C.3       1 <1>         0.0561 
     12 C12         5.8527   14.6666   28.4080 C.3       1 <1>         0.0473 
     13 C13         7.5923   12.1991   30.6514 C.2       1 <1>         0.3534 
     14 O14         8.7563   12.0649   30.9967 O.2       1 <1>        -0.3616 
     15 N15         6.7471   11.2437   30.9504 N.pl3     1 <1>        -0.0704 
     16 N16         5.4169   11.1649   30.7208 N.2       1 <1>        -0.0739 
     17 N17         4.8905   10.0216   31.1892 N.2       1 <1>        -0.2236 
     18 C18         6.0336    9.3590   31.7620 C.2       1 <1>         0.0266 
     19 C19         7.0936   10.1509   31.5800 C.2       1 <1>         0.0968 
     20 H20         6.0078   17.9641   30.6009 H         1 <1>         0.0516 
     21 H1          5.2223   20.1885   29.8891 H         1 <1>         0.0589 
     22 Cl22        4.4411   21.2146   27.3215 Cl        1 <1>        -0.0830 
     23 H3          4.9289   18.8040   25.8354 H         1 <1>         0.0589 
     24 H4          5.7888   16.5966   26.5191 H         1 <1>         0.0516 
     25 H5          7.0263   15.7927   31.0027 H         1 <1>         0.0534 
     26 H6          8.1899   16.5922   29.8937 H         1 <1>         0.0534 
     27 H7          9.0159   14.3864   30.6001 H         1 <1>         0.0542 
     28 H8          8.6889   14.3551   28.8444 H         1 <1>         0.0542 
     29 H9          5.1761   13.6792   30.2245 H         1 <1>         0.0542 
     30 H10         5.5949   12.5890   28.8491 H         1 <1>         0.0542 
     31 H11         4.8083   14.8200   28.0862 H         1 <1>         0.0534 
     32 H12         6.4582   14.4090   27.5237 H         1 <1>         0.0534 
     33 H13         6.0228    8.3867   32.2535 H         1 <1>         0.0560 
     34 H14         8.0936    9.8839   31.9250 H         1 <1>         0.1050 
@<TRIPOS>BOND
     1    2    1 ar   
     2    2    3 ar   
     3    3    4 ar   
     4    4    5 ar   
     5    5    6 ar   
     6    1    6 ar   
     7    6    7 1    
     8    7    8 1    
     9    8    9 1    
    10    9   10 1    
    11   10   11 1    
    12   11   12 1    
    13    7   12 1    
    14   10   13 am   
    15   13   14 2    
    16   13   15 1    
    17   15   16 1    
    18   16   17 2    
    19   17   18 1    
    20   18   19 2    
    21   15   19 1    
    22    1   20 1    
    23    2   21 1    
    24    3   22 1    
    25    4   23 1    
    26    5   24 1    
    27    8   25 1    
    28    8   26 1    
    29    9   27 1    
    30    9   28 1    
    31   11   29 1    
    32   11   30 1    
    33   12   31 1    
    34   12   32 1    
    35   18   33 1    
    36   19   34 1    
@<TRIPOS>SUBSTRUCTURE
     1 ****        2 TEMP              0 ****  ****    0 ROOT 
@<TRIPOS>NORMAL
@<TRIPOS>FF_PBC
FORCE_FIELD_SETUP_FEATURE Force Field Setup information
v1.0  0 0.000000 0.000000 0.000000 0.000000 0.000000 0.000000 NONE 0 0 0 0 1 0 0 0 0 0 0 0 0
