#	Name:			PISM00076
#	Creating user name:	baoopengkun
#	Creation time:		Thu Dec 27 12:09:50 2018

#	Modifying user name:	baoopengkun
#	Modification time:	Thu Dec 27 12:11:36 2018

@<TRIPOS>MOLECULE
PISM00076
   55    56     1     1     0
SMALL
GAST_HUCK


@<TRIPOS>ATOM
      1 C1          8.5347   14.1264  -20.9816 C.3       1 <1>        -0.0631 
      2 C2          8.3590   12.8532  -20.1133 C.3       1 <1>        -0.0383 
      3 C3          6.9814   12.8414  -19.3958 C.3       1 <1>         0.0424 
      4 C4          6.7684   11.6077  -18.5483 C.2       1 <1>         0.2006 
      5 O5          7.6643   10.7824  -18.4844 O.2       1 <1>        -0.3794 
      6 N6          5.6353   11.4778  -17.9085 N.pl3     1 <1>        -0.2419 
      7 C7          5.3644   10.3950  -17.1380 C.ar      1 <1>         0.0513 
      8 C8          5.6288    9.0966  -17.5897 C.ar      1 <1>        -0.0512 
      9 C9          5.3882    7.9983  -16.7594 C.ar      1 <1>        -0.0680 
     10 C10         4.8516    8.1865  -15.4833 C.ar      1 <1>         0.0481 
     11 C11         4.5140    9.4749  -15.0535 C.ar      1 <1>         0.0652 
     12 C12         4.7953   10.5728  -15.8723 C.ar      1 <1>        -0.0185 
     13 Cl13        4.6210    6.8041  -14.4296 Cl        1 <1>        -0.0909 
     14 N14         3.9242    9.6703  -13.8504 N.pl3     1 <1>        -0.2391 
     15 C15         2.7537    9.1507  -13.5875 C.2       1 <1>         0.2334 
     16 O16         2.1422    8.4918  -14.4125 O.2       1 <1>        -0.3762 
     17 C17         2.1378    9.3731  -12.2247 C.3       1 <1>         0.1734 
     18 O18         0.8046    8.8316  -12.1416 O.3       1 <1>        -0.2720 
     19 C19         0.1968    8.9838  -10.8959 C.ar      1 <1>         0.1323 
     20 C20         0.3314    7.9938   -9.9228 C.ar      1 <1>         0.0016 
     21 C21        -0.2610    8.1619   -8.6679 C.ar      1 <1>        -0.0461 
     22 C22        -1.0007    9.3122   -8.3539 C.ar      1 <1>        -0.0625 
     23 C23        -1.1401   10.2875   -9.3543 C.ar      1 <1>        -0.0461 
     24 C24        -0.5520   10.1260  -10.6126 C.ar      1 <1>         0.0016 
     25 C25        -1.6252    9.4570   -6.9373 C.3       1 <1>        -0.0569 
     26 C26        -2.4048   10.7938   -6.7368 C.3       1 <1>        -0.0904 
     27 C27        -0.4924    9.4136   -5.8685 C.3       1 <1>        -0.0904 
     28 C28        -2.6289    8.2902   -6.6974 C.3       1 <1>        -0.0904 
     29 H1          8.4704   15.0306  -20.3564 H         1 <1>         0.0231 
     30 H2          7.7533   14.1749  -21.7559 H         1 <1>         0.0231 
     31 H3          9.5182   14.1129  -21.4775 H         1 <1>         0.0231 
     32 H4          9.1642   12.8133  -19.3604 H         1 <1>         0.0288 
     33 H5          8.4436   11.9613  -20.7569 H         1 <1>         0.0288 
     34 H6          6.1798   12.8847  -20.1497 H         1 <1>         0.0511 
     35 H7          6.9030   13.7269  -18.7458 H         1 <1>         0.0511 
     36 H8          4.9282   12.2251  -17.9715 H         1 <1>         0.2108 
     37 H9          6.0153    8.9306  -18.5901 H         1 <1>         0.0432 
     38 H10         5.6189    6.9956  -17.1046 H         1 <1>         0.0563 
     39 H11         4.5677   11.5730  -15.5194 H         1 <1>         0.0434 
     40 H12         4.4100   10.2479  -13.1489 H         1 <1>         0.2111 
     41 H13         2.1080   10.4556  -12.0268 H         1 <1>         0.0888 
     42 H14         2.7866    8.8834  -11.4823 H         1 <1>         0.0888 
     43 H15         0.8974    7.0956  -10.1476 H         1 <1>         0.0651 
     44 H16        -0.1300    7.3697   -7.9408 H         1 <1>         0.0823 
     45 H17        -1.7053   11.1953   -9.1893 H         1 <1>         0.0823 
     46 H18        -0.6741   10.8868  -11.3768 H         1 <1>         0.0651 
     47 H19        -1.7404   11.6615   -6.8690 H         1 <1>         0.0117 
     48 H20        -2.8221   10.8538   -5.7196 H         1 <1>         0.0117 
     49 H21        -3.2489   10.8687   -7.4395 H         1 <1>         0.0117 
     50 H22        -0.9037    9.5627   -4.8582 H         1 <1>         0.0117 
     51 H23         0.2381   10.2128   -6.0671 H         1 <1>         0.0117 
     52 H24         0.0420    8.4534   -5.8653 H         1 <1>         0.0117 
     53 H25        -3.1214    8.3949   -5.7183 H         1 <1>         0.0117 
     54 H26        -2.1371    7.3077   -6.7138 H         1 <1>         0.0117 
     55 H27        -3.4044    8.2991   -7.4787 H         1 <1>         0.0117 
@<TRIPOS>BOND
     1    2    1 1    
     2    2    3 1    
     3    3    4 1    
     4    4    5 2    
     5    4    6 1    
     6    6    7 1    
     7    7    8 ar   
     8    8    9 ar   
     9    9   10 ar   
    10   10   11 ar   
    11   11   12 ar   
    12    7   12 ar   
    13   10   13 1    
    14   11   14 1    
    15   14   15 1    
    16   15   16 2    
    17   15   17 1    
    18   17   18 1    
    19   18   19 1    
    20   19   20 ar   
    21   20   21 ar   
    22   21   22 ar   
    23   22   23 ar   
    24   23   24 ar   
    25   19   24 ar   
    26   22   25 1    
    27   25   26 1    
    28   25   27 1    
    29   25   28 1    
    30    1   29 1    
    31    1   30 1    
    32    1   31 1    
    33    2   32 1    
    34    2   33 1    
    35    3   34 1    
    36    3   35 1    
    37    6   36 1    
    38    8   37 1    
    39    9   38 1    
    40   12   39 1    
    41   14   40 1    
    42   17   41 1    
    43   17   42 1    
    44   20   43 1    
    45   21   44 1    
    46   23   45 1    
    47   24   46 1    
    48   26   47 1    
    49   26   48 1    
    50   26   49 1    
    51   27   50 1    
    52   27   51 1    
    53   27   52 1    
    54   28   53 1    
    55   28   54 1    
    56   28   55 1    
@<TRIPOS>SUBSTRUCTURE
     1 ****        2 TEMP              0 ****  ****    0 ROOT 
@<TRIPOS>NORMAL
@<TRIPOS>FF_PBC
FORCE_FIELD_SETUP_FEATURE Force Field Setup information
v1.0  0 0.000000 0.000000 0.000000 0.000000 0.000000 0.000000 NONE 0 0 0 0 1 0 0 0 0 0 0 0 0
