#	Name:			PISM00778
#	Creating user name:	baoopengkun
#	Creation time:		Fri Nov 30 21:58:07 2018

#	Modifying user name:	baoopengkun
#	Modification time:	Fri Nov 30 22:07:18 2018

@<TRIPOS>MOLECULE
PISM00778
   27    28     1     2     0
SMALL
GAST_HUCK


@<TRIPOS>ATOM
      1 C1        -25.7340   18.6034  -19.3867 C.2       1 <1>         0.1072 
      2 C2        -24.8745   19.2679  -20.3729 C.2       1 <1>        -0.0006 
      3 C3        -25.4391   19.9136  -21.3998 C.2       1 <1>         0.1481 
      4 O4        -26.7712   19.9642  -21.5492 O.3       1 <1>        -0.2396 
      5 C5        -27.6184   19.3900  -20.6791 C.2       1 <1>         0.1306 
      6 C6        -27.1955   18.7172  -19.6008 C.2       1 <1>         0.1552 
      7 O7        -25.2041   18.0034  -18.4667 O.2       1 <1>        -0.4437 
      8 C8        -24.6714   20.6394  -22.4763 C.3       1 <1>         0.1228 
      9 O9        -25.0492   22.0259  -22.4333 O.3       1 <1>        -0.3734 
     10 O10       -28.1195   18.1847  -18.7738 O.3       1 <1>        -0.2812 
     11 C11       -27.6637   17.5385  -17.5738 C.3       1 <1>         0.2306 
     12 C12       -28.8880   17.1234  -16.7915 C.2       1 <1>        -0.0028 
     13 C13       -28.9475   17.7585  -15.6224 C.2       1 <1>         0.0291 
     14 C14       -27.7523   18.5911  -15.6291 C.2       1 <1>         0.2494 
     15 O15       -26.9868   18.4784  -16.7076 O.3       1 <1>        -0.2321 
     16 C16       -29.9827   17.6421  -14.5374 C.3       1 <1>        -0.0323 
     17 O17       -27.4683   19.3412  -14.7101 O.2       1 <1>        -0.3691 
     18 H1        -23.7911   19.2265  -20.2575 H         1 <1>         0.0252 
     19 H2        -28.6861   19.4890  -20.8728 H         1 <1>         0.1034 
     20 H3        -24.9314   20.1999  -23.4538 H         1 <1>         0.0827 
     21 H4        -23.5830   20.5438  -22.3260 H         1 <1>         0.0827 
     22 H5        -24.6123   22.5471  -23.1001 H         1 <1>         0.2140 
     23 H6        -27.0676   16.6346  -17.7765 H         1 <1>         0.1189 
     24 H7        -29.6260   16.4004  -17.1389 H         1 <1>         0.0705 
     25 H8        -30.5143   16.6816  -14.6097 H         1 <1>         0.0347 
     26 H9        -30.7081   18.4633  -14.6334 H         1 <1>         0.0347 
     27 H10       -29.4972   17.7055  -13.5517 H         1 <1>         0.0347 
@<TRIPOS>BOND
     1    2    1 1    
     2    2    3 2    
     3    3    4 1    
     4    4    5 1    
     5    5    6 2    
     6    1    6 1    
     7    1    7 2    
     8    3    8 1    
     9    8    9 1    
    10    6   10 1    
    11   10   11 1    
    12   11   12 1    
    13   12   13 2    
    14   13   14 1    
    15   14   15 1    
    16   11   15 1    
    17   13   16 1    
    18   14   17 2    
    19    2   18 1    
    20    5   19 1    
    21    8   20 1    
    22    8   21 1    
    23    9   22 1    
    24   11   23 1    
    25   12   24 1    
    26   16   25 1    
    27   16   26 1    
    28   16   27 1    
@<TRIPOS>SUBSTRUCTURE
     1 ****        2 TEMP              0 ****  ****    0 ROOT 
@<TRIPOS>NORMAL
@<TRIPOS>FF_PBC
FORCE_FIELD_SETUP_FEATURE Force Field Setup information
v1.0  0 0.000000 0.000000 0.000000 0.000000 0.000000 0.000000 NONE 0 0 0 0 0 0 0 0 0 0 0 0 0
@<TRIPOS>RENDERING_ATTRS
ANTIALIASED_LINES 
*
