#	Name:			PISM01142
#	Creating user name:	14062
#	Creation time:		Sat Apr 06 10:20:27 2019

#	Modifying user name:	14062
#	Modification time:	Sat Apr 06 10:25:05 2019

@<TRIPOS>MOLECULE
PISM01142
   41    43     2     1     0
SMALL
GAST_HUCK


@<TRIPOS>ATOM
      1 N1          6.8406   -7.5995   10.0712 N.am      1 BENZYL     -0.2205 
      2 S2          5.8503   -8.1631    9.0487 S.o2      1 BENZYL      0.0798 
      3 C2          4.9937   -6.6815    8.6366 C.ar      1 BENZYL      0.1567 
      4 C3          4.8656   -5.6552    9.5754 C.ar      1 BENZYL      0.0960 
      5 C4          4.1467   -4.5097    9.2103 C.ar      1 BENZYL     -0.0116 
      6 C5          3.5603   -4.3851    7.9449 C.ar      1 BENZYL      0.0622 
      7 C6          3.6405   -5.4518    7.0399 C.ar      1 BENZYL      0.1284 
      8 C7          4.4070   -6.5711    7.3739 C.ar      1 BENZYL      0.0118 
      9 N9          5.4150   -5.7448   10.8138 N.pl3     1 BENZYL     -0.2951 
     10 C10         6.4294   -6.7346   11.1715 C.3       1 BENZYL      0.1252 
     11 C11         2.8422   -3.0825    7.5731 C.3       1 BENZYL      0.3751 
     12 S12         2.8364   -5.4147    5.4483 S.o2      1 BENZYL      0.0730 
     13 N13         2.5853   -6.9958    5.1389 N.am      1 BENZYL     -0.2592 
     14 O14         3.7764   -4.9045    4.4697 O.2       1 BENZYL     -0.1484 
     15 O15         1.5316   -4.8033    5.5833 O.2       1 BENZYL     -0.1484 
     16 F16         3.1012   -2.7380    6.2846 F         1 BENZYL     -0.2207 
     17 F17         1.5067   -3.2533    7.7479 F         1 BENZYL     -0.2207 
     18 F18         3.2556   -2.0619    8.3719 F         1 BENZYL     -0.2207 
     19 O19         6.5827   -8.6130    7.8797 O.2       1 BENZYL     -0.1484 
     20 O20         4.9337   -9.0602    9.7208 O.2       1 BENZYL     -0.1484 
     21 C1          5.9194   -7.5918   12.3577 C.3       2 BENZYL      0.0211 
     22 C2          5.6664   -6.7137   13.5934 C.ar      2 BENZYL     -0.0393 
     23 C3          6.7495   -6.2840   14.3697 C.ar      2 BENZYL     -0.0602 
     24 C4          6.5405   -5.5013   15.5091 C.ar      2 BENZYL     -0.0686 
     25 C5          5.2432   -5.1273   15.8699 C.ar      2 BENZYL     -0.0687 
     26 C6          4.1582   -5.5339   15.0875 C.ar      2 BENZYL     -0.0686 
     27 C7          4.3686   -6.3334   13.9591 C.ar      2 BENZYL     -0.0602 
     28 H1          7.7925   -7.9137   10.0429 H         1 BENZYL      0.1700 
     29 H2          4.0453   -3.7020    9.9281 H         1 BENZYL      0.0728 
     30 H3          4.5536   -7.3686    6.6546 H         1 BENZYL      0.0708 
     31 H4          5.1337   -5.0609   11.5358 H         1 BENZYL      0.1778 
     32 H5          7.3121   -6.1662   11.5151 H         1 BENZYL      0.0794 
     33 H6          3.1124   -7.4549    4.4241 H         1 BENZYL      0.1637 
     34 H7          1.8878   -7.5013    5.6481 H         1 BENZYL      0.1637 
     35 H8          4.9960   -8.1112   12.0679 H         2 BENZYL      0.0465 
     36 H9          6.6713   -8.3548   12.6089 H         2 BENZYL      0.0465 
     37 H10         7.7631   -6.5566   14.0918 H         2 BENZYL      0.0557 
     38 H11         7.3860   -5.1844   16.1146 H         2 BENZYL      0.0599 
     39 H12         5.0782   -4.5223   16.7563 H         2 BENZYL      0.0559 
     40 H13         3.1516   -5.2291   15.3598 H         2 BENZYL      0.0599 
     41 H14         3.5154   -6.6564   13.3701 H         2 BENZYL      0.0557 
@<TRIPOS>BOND
     1    2    3 1    
     2    3    4 ar   
     3    3    8 ar   
     4    8    7 ar   
     5    7    6 ar   
     6    5    6 ar   
     7    4    5 ar   
     8    2    1 1    
     9    4    9 1    
    10    9   10 1    
    11    1   10 1    
    12    6   11 1    
    13    7   12 1    
    14   12   13 1    
    15   12   14 2    
    16   12   15 2    
    17   11   16 1    
    18   11   17 1    
    19   11   18 1    
    20    2   19 2    
    21    2   20 2    
    22   21   22 1    
    23   22   23 ar   
    24   22   27 ar   
    25   27   26 ar   
    26   26   25 ar   
    27   25   24 ar   
    28   24   23 ar   
    29   10   21 1    
    30    1   28 1    
    31    5   29 1    
    32    8   30 1    
    33    9   31 1    
    34   10   32 1    
    35   13   33 1    
    36   13   34 1    
    37   21   35 1    
    38   21   36 1    
    39   23   37 1    
    40   24   38 1    
    41   25   39 1    
    42   26   40 1    
    43   27   41 1    
@<TRIPOS>SUBSTRUCTURE
     1 BENZYL      2 PERM              0 ****  ****    1 ROOT 
     2 BENZYL     21 PERM              0 ****  ****    1  
@<TRIPOS>NORMAL
@<TRIPOS>FF_PBC
FORCE_FIELD_SETUP_FEATURE Force Field Setup information
v1.0  0 0.000000 0.000000 0.000000 0.000000 0.000000 0.000000 NONE 0 0 0 0 1 0 0 0 0 0 0 0 0
