#	Name:			PISM00872
#	Creating user name:	baoopengkun
#	Creation time:		Thu Dec 13 23:15:37 2018

#	Modifying user name:	baoopengkun
#	Modification time:	Thu Dec 13 23:55:15 2018

@<TRIPOS>MOLECULE
PISM00872
   24    25     1     1     0
SMALL
GAST_HUCK


@<TRIPOS>ATOM
      1 H2          1.0264    0.8851    1.7663 H         1 <1>         0.0541 
      2 C2         -0.7144    2.0959    2.1677 C.ar      1 <1>        -0.0340 
      3 C3         -1.7949    2.7848    1.6108 C.ar      1 <1>         0.1230 
      4 C4         -1.9736    2.8045    0.2254 C.ar      1 <1>        -0.0274 
      5 C5         -1.0704    2.1357   -0.6059 C.ar      1 <1>         0.0393 
      6 C6          0.0161    1.4535   -0.0493 C.ar      1 <1>         0.1041 
      7 C7          0.1898    1.4267    1.3374 C.ar      1 <1>        -0.0314 
      8 Br8        -1.3130    2.1536   -2.4428 Br        1 <1>        -0.0589 
      9 O9          0.9251    0.7999   -0.8784 O.3       1 <1>        -0.2713 
     10 C10         2.0962    1.5814   -1.1447 C.3       1 <1>         0.2357 
     11 O11         1.7236    2.8515   -1.7173 O.3       1 <1>        -0.2313 
     12 C12         2.1898    2.8251   -2.9591 C.2       1 <1>         0.2494 
     13 C13         2.9297    1.6227   -3.3262 C.2       1 <1>         0.0292 
     14 C14         2.8808    0.8776   -2.2237 C.2       1 <1>        -0.0019 
     15 C15         3.5883    1.2978   -4.6390 C.3       1 <1>        -0.0323 
     16 O16         2.0153    3.7512   -3.7321 O.2       1 <1>        -0.3691 
     17 H1         -0.5828    2.0837    3.2447 H         1 <1>         0.0601 
     18 F18        -2.6545    3.4220    2.4009 F         1 <1>        -0.1922 
     19 H3         -2.8152    3.3404   -0.1998 H         1 <1>         0.0603 
     20 H4          2.7066    1.7336   -0.2393 H         1 <1>         0.1199 
     21 H5          3.3335   -0.1070   -2.1143 H         1 <1>         0.0705 
     22 H6          3.2634    0.3051   -4.9847 H         1 <1>         0.0347 
     23 H7          4.6812    1.2971   -4.5136 H         1 <1>         0.0347 
     24 H8          3.3158    2.0460   -5.3984 H         1 <1>         0.0347 
@<TRIPOS>BOND
     1    7    1 1    
     2    3    2 ar   
     3    4    3 ar   
     4    5    4 ar   
     5    6    5 ar   
     6    6    7 ar   
     7    2    7 ar   
     8    5    8 1    
     9    6    9 1    
    10    9   10 1    
    11   10   11 1    
    12   11   12 1    
    13   12   13 1    
    14   13   14 2    
    15   10   14 1    
    16   13   15 1    
    17   12   16 2    
    18    2   17 1    
    19    3   18 1    
    20    4   19 1    
    21   10   20 1    
    22   14   21 1    
    23   15   22 1    
    24   15   23 1    
    25   15   24 1    
@<TRIPOS>SUBSTRUCTURE
     1 ****        2 TEMP              0 ****  ****    0 ROOT 
@<TRIPOS>NORMAL
@<TRIPOS>FF_PBC
FORCE_FIELD_SETUP_FEATURE Force Field Setup information
v1.0  0 0.000000 0.000000 0.000000 0.000000 0.000000 0.000000 NONE 0 0 0 0 1 0 0 0 0 0 0 0 0
