#	Name:			PISM00355
#	Creating user name:	baoopengkun
#	Creation time:		Sun Mar 31 22:21:44 2019

#	Modifying user name:	baoopengkun
#	Modification time:	Sun Mar 31 22:39:50 2019

@<TRIPOS>MOLECULE
PISM00355
   71    73     1     1     0
SMALL
GAST_HUCK


@<TRIPOS>ATOM
      1 N1         -2.9063    1.0403   -8.9212 N.2       1 <1>        -0.1730 
      2 C2         -3.9329    0.2794   -8.8741 C.2       1 <1>         0.0653 
      3 N3         -3.2913   -0.9935   -9.0094 N.2       1 <1>        -0.2827 
      4 C4         -2.0491   -0.8554   -9.1122 C.2       1 <1>         0.1489 
      5 N5         -1.7036    0.4042   -9.0660 N.pl3     1 <1>        -0.1236 
      6 C6         -0.5022    0.9395   -9.1456 C.2       1 <1>         0.1347 
      7 C7         -0.4957    2.4696   -9.0563 C.3       1 <1>         0.1322 
      8 C8         -0.4350    3.2199  -10.4349 C.3       1 <1>         0.0043 
      9 C9         -1.1427    2.3865  -11.5444 C.3       1 <1>        -0.0552 
     10 C10         1.0289    3.5107  -10.8823 C.3       1 <1>        -0.0552 
     11 C11        -1.1650    4.5952  -10.3073 C.3       1 <1>        -0.0552 
     12 O12         0.4749    3.0128   -8.1409 O.3       1 <1>        -0.3716 
     13 C13         0.5990    0.1802   -9.3107 C.2       1 <1>        -0.0370 
     14 C14         2.0402    0.6214   -9.4404 C.ar      1 <1>        -0.0552 
     15 C15         2.7319    0.2911  -10.6119 C.ar      1 <1>        -0.0693 
     16 C16         4.0621    0.6849  -10.7858 C.ar      1 <1>        -0.0312 
     17 C17         4.7116    1.4241   -9.7938 C.ar      1 <1>         0.1107 
     18 C18         4.0143    1.7717   -8.6313 C.ar      1 <1>        -0.0312 
     19 C19         2.7136    1.3056   -8.4255 C.ar      1 <1>        -0.0693 
     20 N20         6.0129    1.7649   -9.9416 N.pl3     1 <1>        -0.1417 
     21 C21         2.5464    0.7437   -3.3017 C.3       1 <1>        -0.0323 
     22 C22         1.1854    1.1504   -3.9270 C.3       1 <1>        -0.0632 
     23 H1         -4.9867    0.5291   -8.7631 H         1 <1>         0.0879 
     24 H2         -1.4553   -1.7600   -9.2203 H         1 <1>         0.1387 
     25 H3         -1.4525    2.7757   -8.6015 H         1 <1>         0.0846 
     26 H4         -1.1621    2.9409  -12.4952 H         1 <1>         0.0238 
     27 H5         -2.1806    2.1648  -11.2542 H         1 <1>         0.0238 
     28 H6         -0.6192    1.4348  -11.7238 H         1 <1>         0.0238 
     29 H7          1.5671    2.5804  -11.0922 H         1 <1>         0.0238 
     30 H8          1.5811    4.0704  -10.1118 H         1 <1>         0.0238 
     31 H9          1.0416    4.1098  -11.8060 H         1 <1>         0.0238 
     32 H10        -1.0931    5.1765  -11.2394 H         1 <1>         0.0238 
     33 H11        -0.7155    5.1888   -9.4957 H         1 <1>         0.0238 
     34 H12        -2.2350    4.4589  -10.0851 H         1 <1>         0.0238 
     35 H13         0.3394    2.7373   -7.2374 H         1 <1>         0.2141 
     36 H14         0.5635   -0.9011   -9.3920 H         1 <1>         0.0306 
     37 H15         2.2350   -0.2771  -11.3920 H         1 <1>         0.0534 
     38 H16         4.5943    0.4170  -11.6931 H         1 <1>         0.0577 
     39 N39         6.9933    0.9548  -10.3977 N.2       1 <1>        -0.0916 
     40 N40         8.1934    1.5480  -10.2854 N.2       1 <1>        -0.2239 
     41 C41         7.8593    2.8416   -9.7429 C.2       1 <1>         0.0640 
     42 C42         6.5321    2.9096   -9.5954 C.2       1 <1>         0.0848 
     43 C43         8.8884    3.8884   -9.3998 C.3       1 <1>         0.0827 
     44 O44         9.8202    3.3958   -8.4088 O.3       1 <1>        -0.3686 
     45 C45         9.3662    3.4303   -7.0317 C.3       1 <1>         0.0729 
     46 C46         8.0229    2.7065   -6.7632 C.3       1 <1>         0.0713 
     47 O47         7.7370    2.5539   -5.3540 O.3       1 <1>        -0.3752 
     48 C48         6.4456    1.9414   -5.1210 C.3       1 <1>         0.0711 
     49 C49         6.1271    1.8747   -3.6076 C.3       1 <1>         0.0710 
     50 O50         4.9503    1.0924   -3.2942 O.3       1 <1>        -0.3775 
     51 C51         3.7202    1.5791   -3.8740 C.3       1 <1>         0.0475 
     52 H17         4.4830    2.3834   -7.8704 H         1 <1>         0.0577 
     53 H18         2.2466    1.4578   -7.4622 H         1 <1>         0.0534 
     54 H19         2.5087    0.8843   -2.2086 H         1 <1>         0.0285 
     55 H20         2.7354   -0.3237   -3.5051 H         1 <1>         0.0285 
     56 H21         1.1901    0.9671   -5.0125 H         1 <1>         0.0230 
     57 H22         0.9804    2.2174   -3.7493 H         1 <1>         0.0230 
     58 H23         0.3728    0.5579   -3.4773 H         1 <1>         0.0230 
     59 H24         5.9904    3.7784   -9.2194 H         1 <1>         0.0902 
     60 H25         8.4356    4.8457   -9.0990 H         1 <1>         0.0679 
     61 H26         9.4625    4.0570  -10.3228 H         1 <1>         0.0679 
     62 H27         9.3047    4.4736   -6.6825 H         1 <1>         0.0584 
     63 H28        10.1449    2.9262   -6.4384 H         1 <1>         0.0584 
     64 H29         8.0413    1.7233   -7.2630 H         1 <1>         0.0583 
     65 H30         7.2299    3.3355   -7.1863 H         1 <1>         0.0583 
     66 H31         6.4175    0.9181   -5.5309 H         1 <1>         0.0583 
     67 H32         5.6666    2.5488   -5.6052 H         1 <1>         0.0583 
     68 H33         6.0436    2.8936   -3.1968 H         1 <1>         0.0583 
     69 H34         6.9729    1.3802   -3.1050 H         1 <1>         0.0583 
     70 H35         3.7195    1.4534   -4.9682 H         1 <1>         0.0560 
     71 H36         3.5622    2.6424   -3.6286 H         1 <1>         0.0560 
@<TRIPOS>BOND
     1    2    1 2    
     2    2    3 1    
     3    3    4 2    
     4    4    5 1    
     5    1    5 1    
     6    5    6 1    
     7    6    7 1    
     8    7    8 1    
     9    8    9 1    
    10    8   10 1    
    11    8   11 1    
    12    7   12 1    
    13    6   13 2    
    14   13   14 1    
    15   14   15 ar   
    16   15   16 ar   
    17   16   17 ar   
    18   18   17 ar   
    19   19   18 ar   
    20   14   19 ar   
    21   17   20 1    
    22   51   21 1    
    23   21   22 1    
    24    2   23 1    
    25    4   24 1    
    26    7   25 1    
    27    9   26 1    
    28    9   27 1    
    29    9   28 1    
    30   10   29 1    
    31   10   30 1    
    32   10   31 1    
    33   11   32 1    
    34   11   33 1    
    35   11   34 1    
    36   12   35 1    
    37   13   36 1    
    38   15   37 1    
    39   16   38 1    
    40   20   39 1    
    41   39   40 2    
    42   41   40 1    
    43   42   41 2    
    44   20   42 1    
    45   41   43 1    
    46   43   44 1    
    47   44   45 1    
    48   45   46 1    
    49   46   47 1    
    50   47   48 1    
    51   48   49 1    
    52   49   50 1    
    53   50   51 1    
    54   18   52 1    
    55   19   53 1    
    56   21   54 1    
    57   21   55 1    
    58   22   56 1    
    59   22   57 1    
    60   22   58 1    
    61   42   59 1    
    62   43   60 1    
    63   43   61 1    
    64   45   62 1    
    65   45   63 1    
    66   46   64 1    
    67   46   65 1    
    68   48   66 1    
    69   48   67 1    
    70   49   68 1    
    71   49   69 1    
    72   51   70 1    
    73   51   71 1    
@<TRIPOS>SUBSTRUCTURE
     1 ****        2 TEMP              0 ****  ****    0 ROOT 
@<TRIPOS>NORMAL
@<TRIPOS>FF_PBC
FORCE_FIELD_SETUP_FEATURE Force Field Setup information
v1.0  0 0.000000 0.000000 0.000000 0.000000 0.000000 0.000000 NONE 0 0 0 0 1 0 0 0 0 0 0 0 0
