#	Name:			PISM00854
#	Creating user name:	baoopengkun
#	Creation time:		Thu Dec 13 15:12:19 2018

#	Modifying user name:	baoopengkun
#	Modification time:	Thu Dec 13 20:08:52 2018

@<TRIPOS>MOLECULE
PISM00854
   24    25     1     1     0
SMALL
GAST_HUCK


@<TRIPOS>ATOM
      1 F1          0.1347   -0.4234    1.7520 F         1 <1>        -0.1935 
      2 C2         -1.8897    0.3083    0.7829 C.ar      1 <1>        -0.0385 
      3 C3         -2.5915    0.7636   -0.3375 C.ar      1 <1>        -0.0412 
      4 C4         -1.9304    0.9208   -1.5585 C.ar      1 <1>         0.1196 
      5 C5         -0.5691    0.6236   -1.6596 C.ar      1 <1>        -0.0011 
      6 C6          0.1328    0.1653   -0.5420 C.ar      1 <1>         0.1296 
      7 C7         -0.5283    0.0093    0.6812 C.ar      1 <1>         0.1555 
      8 F8         -2.5975    1.3534   -2.6247 F         1 <1>        -0.1897 
      9 O9          1.4900   -0.1348   -0.6566 O.3       1 <1>        -0.2718 
     10 C10         2.3361    0.8450   -0.0421 C.3       1 <1>         0.2349 
     11 O11         2.0852    2.1315   -0.6432 O.3       1 <1>        -0.2315 
     12 C12         3.2079    2.4444   -1.2776 C.2       1 <1>         0.2494 
     13 C13         4.2927    1.4781   -1.1489 C.2       1 <1>         0.0292 
     14 C14         3.7645    0.5143   -0.3968 C.2       1 <1>        -0.0021 
     15 C15         5.6728    1.5562   -1.7423 C.3       1 <1>        -0.0323 
     16 O16         3.3210    3.4754   -1.9178 O.2       1 <1>        -0.3691 
     17 H1         -2.3974    0.1852    1.7340 H         1 <1>         0.0565 
     18 H2         -3.6490    0.9963   -0.2646 H         1 <1>         0.0501 
     19 H3         -0.0555    0.7497   -2.6063 H         1 <1>         0.0516 
     20 H4          2.2049    0.8952    1.0516 H         1 <1>         0.1197 
     21 H5          4.2810   -0.3922   -0.0840 H         1 <1>         0.0705 
     22 H6          6.0926    0.5487   -1.8832 H         1 <1>         0.0347 
     23 H7          6.3274    2.1291   -1.0690 H         1 <1>         0.0347 
     24 H8          5.6300    2.0634   -2.7179 H         1 <1>         0.0347 
@<TRIPOS>BOND
     1    7    1 1    
     2    2    3 ar   
     3    3    4 ar   
     4    4    5 ar   
     5    5    6 ar   
     6    6    7 ar   
     7    2    7 ar   
     8    4    8 1    
     9    6    9 1    
    10    9   10 1    
    11   10   11 1    
    12   11   12 1    
    13   12   13 1    
    14   13   14 2    
    15   10   14 1    
    16   13   15 1    
    17   12   16 2    
    18    2   17 1    
    19    3   18 1    
    20    5   19 1    
    21   10   20 1    
    22   14   21 1    
    23   15   22 1    
    24   15   23 1    
    25   15   24 1    
@<TRIPOS>SUBSTRUCTURE
     1 ****        2 TEMP              0 ****  ****    0 ROOT 
@<TRIPOS>NORMAL
@<TRIPOS>FF_PBC
FORCE_FIELD_SETUP_FEATURE Force Field Setup information
v1.0  0 0.000000 0.000000 0.000000 0.000000 0.000000 0.000000 NONE 0 0 0 0 1 0 0 0 0 0 0 0 0
