#	Name:			PISM00127
#	Creating user name:	baoopengkun
#	Creation time:		Mon Dec 17 15:22:14 2018

#	Modifying user name:	baoopengkun
#	Modification time:	Mon Dec 17 15:24:21 2018

@<TRIPOS>MOLECULE
PISM00127
   60    64     1     1     0
SMALL
GAST_HUCK


@<TRIPOS>ATOM
      1 C1         24.9928   10.0240   11.0330 C.ar      1 <1>        -0.0567 
      2 C2         26.2029    9.4148   11.3778 C.ar      1 <1>        -0.0575 
      3 C3         26.3488    8.0288   11.2651 C.ar      1 <1>        -0.0479 
      4 C4         25.2984    7.2542   10.7593 C.ar      1 <1>         0.0171 
      5 C5         24.0698    7.8564   10.4856 C.ar      1 <1>         0.0643 
      6 C6         23.9189    9.2421   10.5983 C.ar      1 <1>        -0.0414 
      7 C7         22.9261    6.9561   10.0802 C.2       1 <1>         0.2403 
      8 O8         21.8282    7.4513    9.8783 O.2       1 <1>        -0.3805 
      9 N9         23.1421    5.6720    9.9625 N.pl3     1 <1>        -0.1630 
     10 N10        24.3612    5.1115   10.1627 N.2       1 <1>        -0.1772 
     11 C11        25.4007    5.7671   10.4986 C.2       1 <1>         0.0803 
     12 C12        22.0412    4.7935    9.5825 C.3       1 <1>         0.0567 
     13 C13        26.7076    5.0145   10.6185 C.ar      1 <1>        -0.0109 
     14 C14        27.8817    5.5054   10.0396 C.ar      1 <1>        -0.0605 
     15 C15        29.0844    4.8130   10.2055 C.ar      1 <1>        -0.0310 
     16 C16        29.1266    3.6100   10.9153 C.ar      1 <1>         0.0961 
     17 C17        27.9409    3.0984   11.4601 C.ar      1 <1>        -0.0310 
     18 C18        26.7400    3.7986   11.3075 C.ar      1 <1>        -0.0605 
     19 O19        30.3601    2.9588   11.0528 O.3       1 <1>        -0.2964 
     20 C20        30.5066    1.7145   11.7646 C.3       1 <1>         0.1596 
     21 C21        31.9409    1.2378   11.7304 C.2       1 <1>         0.2096 
     22 O22        32.4129    0.8486   12.7871 O.2       1 <1>        -0.3939 
     23 N23        32.6779    1.2239   10.5857 N.am      1 <1>        -0.2672 
     24 C24        32.0928    1.6315    9.3066 C.3       1 <1>         0.0536 
     25 C25        32.8750    0.9681    8.1440 C.3       1 <1>         0.0472 
     26 N26        34.3011    1.2798    8.2355 N.pl3     1 <1>        -0.3050 
     27 C27        34.8843    1.5304    9.5533 C.3       1 <1>         0.0472 
     28 C28        34.0772    0.8012   10.6570 C.3       1 <1>         0.0536 
     29 C29        35.0709    1.3335    7.1163 C.ar      1 <1>         0.0403 
     30 C30        34.8902    0.4064    6.0821 C.ar      1 <1>        -0.0443 
     31 C31        35.6696    0.4694    4.9230 C.ar      1 <1>        -0.0737 
     32 C32        36.6568    1.4497    4.7959 C.ar      1 <1>        -0.0751 
     33 C33        36.8540    2.3706    5.8277 C.ar      1 <1>        -0.0737 
     34 C34        36.0586    2.3166    6.9763 C.ar      1 <1>        -0.0443 
     35 H1         24.8858   11.1022   11.1058 H         1 <1>         0.0625 
     36 H2         27.0304   10.0201   11.7359 H         1 <1>         0.0650 
     37 H3         27.2772    7.5675   11.5821 H         1 <1>         0.0631 
     38 H4         22.9713    9.7105   10.3512 H         1 <1>         0.0667 
     39 H5         21.6426    5.0915    8.6003 H         1 <1>         0.0557 
     40 H6         21.2370    4.8518   10.3322 H         1 <1>         0.0557 
     41 H7         22.3859    3.7501    9.5185 H         1 <1>         0.0557 
     42 H8         27.8626    6.4186    9.4532 H         1 <1>         0.0598 
     43 H9         29.9999    5.2085    9.7779 H         1 <1>         0.0548 
     44 H10        27.9226    2.1630   12.0058 H         1 <1>         0.0548 
     45 H11        25.8242    3.3968   11.7305 H         1 <1>         0.0598 
     46 H12        29.8856    0.9178   11.3293 H         1 <1>         0.0860 
     47 H13        30.2154    1.8662   12.8159 H         1 <1>         0.0860 
     48 H14        32.1644    2.7266    9.2074 H         1 <1>         0.0542 
     49 H15        31.0380    1.3306    9.2044 H         1 <1>         0.0542 
     50 H16        32.4571    1.3175    7.1844 H         1 <1>         0.0533 
     51 H17        32.7477   -0.1244    8.2104 H         1 <1>         0.0533 
     52 H18        34.8528    2.6127    9.7574 H         1 <1>         0.0533 
     53 H19        35.9331    1.1902    9.5879 H         1 <1>         0.0533 
     54 H20        34.5384    1.0385   11.6308 H         1 <1>         0.0542 
     55 H21        34.1338   -0.2876   10.5008 H         1 <1>         0.0542 
     56 H22        34.1470   -0.3779    6.1703 H         1 <1>         0.0515 
     57 H23        35.5098   -0.2451    4.1212 H         1 <1>         0.0583 
     58 H24        37.2680    1.4955    3.8996 H         1 <1>         0.0505 
     59 H25        37.6247    3.1300    5.7357 H         1 <1>         0.0583 
     60 H26        36.2151    3.0545    7.7549 H         1 <1>         0.0515 
@<TRIPOS>BOND
     1    2    1 ar   
     2    2    3 ar   
     3    3    4 ar   
     4    4    5 ar   
     5    5    6 ar   
     6    1    6 ar   
     7    5    7 1    
     8    7    8 2    
     9    7    9 1    
    10    9   10 1    
    11   10   11 2    
    12    4   11 1    
    13    9   12 1    
    14   11   13 1    
    15   13   14 ar   
    16   14   15 ar   
    17   15   16 ar   
    18   16   17 ar   
    19   17   18 ar   
    20   13   18 ar   
    21   16   19 1    
    22   19   20 1    
    23   20   21 1    
    24   21   22 2    
    25   21   23 am   
    26   23   24 1    
    27   24   25 1    
    28   25   26 1    
    29   26   27 1    
    30   27   28 1    
    31   23   28 1    
    32   26   29 1    
    33   29   30 ar   
    34   30   31 ar   
    35   31   32 ar   
    36   32   33 ar   
    37   33   34 ar   
    38   29   34 ar   
    39    1   35 1    
    40    2   36 1    
    41    3   37 1    
    42    6   38 1    
    43   12   39 1    
    44   12   40 1    
    45   12   41 1    
    46   14   42 1    
    47   15   43 1    
    48   17   44 1    
    49   18   45 1    
    50   20   46 1    
    51   20   47 1    
    52   24   48 1    
    53   24   49 1    
    54   25   50 1    
    55   25   51 1    
    56   27   52 1    
    57   27   53 1    
    58   28   54 1    
    59   28   55 1    
    60   30   56 1    
    61   31   57 1    
    62   32   58 1    
    63   33   59 1    
    64   34   60 1    
@<TRIPOS>SUBSTRUCTURE
     1 ****        2 TEMP              0 ****  ****    0 ROOT 
@<TRIPOS>NORMAL
@<TRIPOS>FF_PBC
FORCE_FIELD_SETUP_FEATURE Force Field Setup information
v1.0  0 0.000000 0.000000 0.000000 0.000000 0.000000 0.000000 NONE 0 0 0 0 1 0 0 0 0 0 0 0 0
