#	Name:			PISM00263
#	Creating user name:	14062
#	Creation time:		Sat Apr 06 00:39:03 2019

#	Modifying user name:	14062
#	Modification time:	Sat Apr 06 00:43:52 2019

@<TRIPOS>MOLECULE
PISM00263
   47    49     1     1     0
SMALL
GAST_HUCK


@<TRIPOS>ATOM
      1 O1          0.4614   -0.1857    5.8627 O.3       1 <1>        -0.3766 
      2 C2          1.1917    1.0507    5.7265 C.3       1 <1>         0.0647 
      3 C3          1.0236    1.6255    4.2989 C.3       1 <1>         0.0531 
      4 N4         -0.4026    1.6947    4.0120 N.am      1 <1>        -0.2296 
      5 C5         -1.2288    0.5144    4.2197 C.3       1 <1>         0.0531 
      6 C6         -0.9541   -0.0123    5.6492 C.3       1 <1>         0.0647 
      7 S7         -1.1248    3.1391    3.4788 S.o2      1 <1>         0.0722 
      8 C8         -2.0126    2.5569    2.0522 C.ar      1 <1>         0.1279 
      9 C9         -3.4081    2.6331    2.0145 C.ar      1 <1>        -0.0142 
     10 C10        -4.1240    2.1702    0.9043 C.ar      1 <1>         0.0574 
     11 C11        -3.4230    1.6016   -0.1662 C.ar      1 <1>        -0.0408 
     12 C12        -2.0265    1.5421   -0.1424 C.ar      1 <1>        -0.0402 
     13 C13        -1.3196    2.0148    0.9660 C.ar      1 <1>         0.0717 
     14 O14        -0.1017    4.0625    3.0306 O.2       1 <1>        -0.1500 
     15 O15        -2.0696    3.5608    4.4933 O.2       1 <1>        -0.1500 
     16 Cl16        0.4294    1.9181    0.9788 Cl        1 <1>        -0.0644 
     17 C17        -5.6357    2.2914    0.9048 C.2       1 <1>         0.2297 
     18 N18        -6.3200    2.4731   -0.1947 N.pl3     1 <1>        -0.2381 
     19 C19        -7.6733    2.5684   -0.1907 C.ar      1 <1>         0.0667 
     20 C20        -8.4635    1.6641    0.5278 C.ar      1 <1>        -0.0353 
     21 C21        -9.8532    1.8081    0.5474 C.ar      1 <1>        -0.0662 
     22 C22       -10.4639    2.8343   -0.1788 C.ar      1 <1>        -0.0552 
     23 C23        -9.6893    3.7243   -0.9327 C.ar      1 <1>         0.0221 
     24 C24        -8.2965    3.5817   -0.9273 C.ar      1 <1>        -0.0214 
     25 C25       -10.3197    4.8348   -1.7504 C.2       1 <1>         0.1271 
     26 C26       -11.8067    5.0722   -1.7783 C.3       1 <1>         0.0107 
     27 O27        -9.6049    5.5684   -2.4145 O.2       1 <1>        -0.3787 
     28 O28        -6.1786    2.2267    1.9954 O.2       1 <1>        -0.3667 
     29 H1          2.2557    0.8455    5.9246 H         1 <1>         0.0576 
     30 H2          0.8417    1.7861    6.4697 H         1 <1>         0.0576 
     31 H3          1.5006    0.9456    3.5759 H         1 <1>         0.0501 
     32 H4          1.5131    2.6093    4.2308 H         1 <1>         0.0501 
     33 H5         -0.9457   -0.2510    3.4801 H         1 <1>         0.0501 
     34 H6         -2.3016    0.7370    4.1044 H         1 <1>         0.0501 
     35 H7         -1.4464   -0.9876    5.7896 H         1 <1>         0.0576 
     36 H8         -1.3683    0.6896    6.3918 H         1 <1>         0.0576 
     37 H9         -3.9401    3.0600    2.8578 H         1 <1>         0.0690 
     38 H10        -3.9498    1.1899   -1.0203 H         1 <1>         0.0670 
     39 H11        -1.4860    1.1244   -0.9861 H         1 <1>         0.0635 
     40 H12        -5.8253    2.5933   -1.0882 H         1 <1>         0.2099 
     41 H13        -8.0063    0.8411    1.0676 H         1 <1>         0.0567 
     42 H14       -10.4598    1.1187    1.1275 H         1 <1>         0.0598 
     43 H15       -11.5436    2.9244   -0.1464 H         1 <1>         0.0569 
     44 H16        -7.6832    4.2696   -1.4994 H         1 <1>         0.0581 
     45 H17       -12.1712    5.2835   -0.7623 H         1 <1>         0.0450 
     46 H18       -12.3203    4.1859   -2.1787 H         1 <1>         0.0450 
     47 H19       -12.0474    5.9334   -2.4204 H         1 <1>         0.0450 
@<TRIPOS>BOND
     1    2    1 1    
     2    2    3 1    
     3    3    4 1    
     4    4    5 1    
     5    5    6 1    
     6    1    6 1    
     7    4    7 1    
     8    7    8 1    
     9    8    9 ar   
    10    9   10 ar   
    11   10   11 ar   
    12   11   12 ar   
    13   12   13 ar   
    14    8   13 ar   
    15    7   14 2    
    16    7   15 2    
    17   13   16 1    
    18   10   17 1    
    19   17   18 1    
    20   18   19 1    
    21   19   20 ar   
    22   20   21 ar   
    23   21   22 ar   
    24   22   23 ar   
    25   23   24 ar   
    26   19   24 ar   
    27   23   25 1    
    28   25   26 1    
    29   25   27 2    
    30   17   28 2    
    31    2   29 1    
    32    2   30 1    
    33    3   31 1    
    34    3   32 1    
    35    5   33 1    
    36    5   34 1    
    37    6   35 1    
    38    6   36 1    
    39    9   37 1    
    40   11   38 1    
    41   12   39 1    
    42   18   40 1    
    43   20   41 1    
    44   21   42 1    
    45   22   43 1    
    46   24   44 1    
    47   26   45 1    
    48   26   46 1    
    49   26   47 1    
@<TRIPOS>SUBSTRUCTURE
     1 ****        2 TEMP              0 ****  ****    0 ROOT 
@<TRIPOS>NORMAL
@<TRIPOS>FF_PBC
FORCE_FIELD_SETUP_FEATURE Force Field Setup information
v1.0  0 0.000000 0.000000 0.000000 0.000000 0.000000 0.000000 NONE 0 0 0 0 1 0 0 0 0 0 0 0 0
