#	Name:			PISM00787
#	Creating user name:	baoopengkun
#	Creation time:		Sat Dec 15 01:09:24 2018

#	Modifying user name:	baoopengkun
#	Modification time:	Sat Dec 15 01:17:41 2018

@<TRIPOS>MOLECULE
PISM00787
   50    54     1     1     0
SMALL
GAST_HUCK


@<TRIPOS>ATOM
      1 C1         11.1829   10.1740  -27.7771 C.ar      1 <1>        -0.0395 
      2 C2          9.9975    9.5780  -27.3160 C.ar      1 <1>        -0.0682 
      3 C3         10.0008    8.6698  -26.2484 C.ar      1 <1>        -0.0412 
      4 C4         11.2324    8.3720  -25.6645 C.ar      1 <1>         0.0661 
      5 C5         12.3986    8.9665  -26.1275 C.ar      1 <1>        -0.0102 
      6 C6         12.4159    9.8783  -27.1804 C.ar      1 <1>        -0.0648 
      7 C7         13.4371    8.3586  -25.2237 C.2       1 <1>        -0.0184 
      8 C8         12.7898    7.5392  -24.4025 C.2       1 <1>         0.1038 
      9 N9         11.5046    7.5306  -24.6383 N.pl3     1 <1>        -0.2676 
     10 C10        10.5214    6.7370  -23.9113 C.3       1 <1>         0.0369 
     11 C11        13.7509    6.9142  -23.4989 C.2       1 <1>         0.1397 
     12 O12        13.5403    6.1123  -22.6034 O.2       1 <1>        -0.4040 
     13 C13        15.0563    7.4690  -23.9027 C.2       1 <1>         0.0278 
     14 C14        14.9263    8.4565  -25.0492 C.3       1 <1>        -0.0036 
     15 C15        16.2209    7.1448  -23.3328 C.2       1 <1>         0.0829 
     16 O16        17.3505    7.7163  -23.7755 O.3       1 <1>        -0.2667 
     17 C17        18.5340    7.2885  -23.0782 C.3       1 <1>         0.2400 
     18 C18        18.4923    7.6389  -21.6094 C.2       1 <1>        -0.0007 
     19 C19        18.6397    6.5413  -20.8693 C.2       1 <1>         0.0293 
     20 C20        18.7647    5.4734  -21.8564 C.2       1 <1>         0.2496 
     21 O21        18.6890    5.8557  -23.1259 O.3       1 <1>        -0.2302 
     22 C22        18.6551    6.4220  -19.3700 C.3       1 <1>        -0.0323 
     23 O23        18.9229    4.3064  -21.5432 O.2       1 <1>        -0.3691 
     24 C24        11.1319   11.1287  -28.9120 C.ar      1 <1>        -0.0373 
     25 H2          9.0556    9.8221  -27.7970 H         1 <1>         0.0548 
     26 H3          9.0825    8.2165  -25.8922 H         1 <1>         0.0548 
     27 H4         13.3424   10.3326  -27.5139 H         1 <1>         0.0554 
     28 H5         10.0033    6.0636  -24.6107 H         1 <1>         0.0555 
     29 H6          9.7854    7.4065  -23.4412 H         1 <1>         0.0555 
     30 H7         10.9912    6.1275  -23.1241 H         1 <1>         0.0555 
     31 H8         15.4632    8.1229  -25.9498 H         1 <1>         0.0475 
     32 H9         15.2355    9.4727  -24.7623 H         1 <1>         0.0475 
     33 H10        16.1819    6.4144  -22.5210 H         1 <1>         0.1132 
     34 H11        19.4114    7.7642  -23.5454 H         1 <1>         0.1214 
     35 H12        18.3606    8.6471  -21.2186 H         1 <1>         0.0706 
     36 H13        18.3697    5.4025  -19.0701 H         1 <1>         0.0347 
     37 H14        17.9469    7.1354  -18.9222 H         1 <1>         0.0347 
     38 H15        19.6675    6.6350  -18.9962 H         1 <1>         0.0347 
     39 C39        11.9066   10.9086  -30.0533 C.ar      1 <1>        -0.0667 
     40 C40        11.8564   11.8077  -31.1227 C.ar      1 <1>        -0.0365 
     41 C41        11.0286   12.9391  -31.0762 C.ar      1 <1>         0.1315 
     42 C42        10.2559   13.1489  -29.9244 C.ar      1 <1>        -0.0365 
     43 C43        10.3087   12.2556  -28.8503 C.ar      1 <1>        -0.0667 
     44 N44        10.9766   13.8098  -32.1208 N.pl3     1 <1>         0.1218 
     45 O45        11.6624   13.5811  -33.0938 O.2       1 <1>        -0.1127 
     46 O46        10.2464   14.7731  -32.0301 O.2       1 <1>        -0.1127 
     47 H1         12.5483   10.0346  -30.1112 H         1 <1>         0.0582 
     48 H16        12.4745   11.6078  -31.9921 H         1 <1>         0.0520 
     49 H17         9.6013   14.0109  -29.8448 H         1 <1>         0.0520 
     50 H18         9.7091   12.4394  -27.9639 H         1 <1>         0.0582 
@<TRIPOS>BOND
     1    2    1 ar   
     2    2    3 ar   
     3    3    4 ar   
     4    4    5 ar   
     5    5    6 ar   
     6    1    6 ar   
     7    5    7 1    
     8    7    8 2    
     9    8    9 1    
    10    4    9 1    
    11    9   10 1    
    12    8   11 1    
    13   11   12 2    
    14   11   13 1    
    15   13   14 1    
    16    7   14 1    
    17   13   15 2    
    18   15   16 1    
    19   16   17 1    
    20   17   18 1    
    21   18   19 2    
    22   19   20 1    
    23   20   21 1    
    24   17   21 1    
    25   19   22 1    
    26   20   23 2    
    27    1   24 1    
    28    2   25 1    
    29    3   26 1    
    30    6   27 1    
    31   10   28 1    
    32   10   29 1    
    33   10   30 1    
    34   14   31 1    
    35   14   32 1    
    36   15   33 1    
    37   17   34 1    
    38   18   35 1    
    39   22   36 1    
    40   22   37 1    
    41   22   38 1    
    42   24   39 ar   
    43   39   40 ar   
    44   40   41 ar   
    45   41   42 ar   
    46   42   43 ar   
    47   24   43 ar   
    48   41   44 1    
    49   44   45 2    
    50   44   46 2    
    51   39   47 1    
    52   40   48 1    
    53   42   49 1    
    54   43   50 1    
@<TRIPOS>SUBSTRUCTURE
     1 ****        2 TEMP              0 ****  ****    0 ROOT 
@<TRIPOS>NORMAL
@<TRIPOS>FF_PBC
FORCE_FIELD_SETUP_FEATURE Force Field Setup information
v1.0  0 0.000000 0.000000 0.000000 0.000000 0.000000 0.000000 NONE 0 0 0 0 1 0 0 0 0 0 0 0 0
