#	Name:			PISM01194
#	Creating user name:	14062
#	Creation time:		Sat Apr 06 23:46:39 2019

#	Modifying user name:	14062
#	Modification time:	Sat Apr 06 23:54:25 2019

@<TRIPOS>MOLECULE
PISM01194
   62    64     1     1     0
SMALL
GAST_HUCK


@<TRIPOS>ATOM
      1 C1         -8.9048   12.0658   -1.7523 C.3       1 <1>         0.0988 
      2 C2         -8.7303   10.5270   -1.8929 C.3       1 <1>         0.0160 
      3 C3         -9.7089    9.8741   -2.9185 C.3       1 <1>        -0.0163 
      4 C4         -9.4323    8.3402   -3.0572 C.3       1 <1>        -0.0129 
      5 C5         -9.5103    7.7004   -1.6906 C.2       1 <1>        -0.0815 
      6 C6         -9.2792    8.3877   -0.5658 C.2       1 <1>        -0.0819 
      7 C7         -8.0101   12.5530   -0.5822 C.3       1 <1>        -0.0137 
      8 C8         -8.5235   11.9424    0.7425 C.3       1 <1>        -0.0341 
      9 C9         -8.8352   10.4743    0.6084 C.2       1 <1>        -0.0948 
     10 O10       -10.3019   12.3325   -1.5145 O.3       1 <1>        -0.2712 
     11 H2         -8.5655   12.5484   -2.6852 H         1 <1>         0.0672 
     12 C12        -8.9358    9.8275   -0.5628 C.2       1 <1>        -0.0680 
     13 H3         -7.6905   10.3472   -2.2015 H         1 <1>         0.0452 
     14 C14        -9.9424   10.6535   -4.2567 C.3       1 <1>        -0.0434 
     15 H5        -10.7012    9.9262   -2.4299 H         1 <1>         0.0351 
     16 C16        -8.0603    7.9020   -3.6436 C.3       1 <1>        -0.0519 
     17 H7        -10.2317    7.9101   -3.6860 H         1 <1>         0.0478 
     18 H8         -9.7549    6.6380   -1.6264 H         1 <1>         0.0629 
     19 H9         -9.3539    7.8514    0.3821 H         1 <1>         0.0405 
     20 H10        -8.0000   13.6512   -0.4984 H         1 <1>         0.0316 
     21 H11        -6.9721   12.2259   -0.7582 H         1 <1>         0.0316 
     22 H12        -9.4520   12.4503    1.0505 H         1 <1>         0.0394 
     23 H13        -7.7694   12.0942    1.5327 H         1 <1>         0.0394 
     24 H14        -8.9988    9.9341    1.5424 H         1 <1>         0.0426 
     25 C25       -10.6439   13.6257   -1.5776 C.2       1 <1>         0.2369 
     26 O26        -9.8563   14.5164   -1.8551 O.2       1 <1>        -0.3701 
     27 C27       -12.1009   13.9027   -1.2921 C.3       1 <1>         0.0570 
     28 C28       -12.4238   15.4116   -1.5086 C.3       1 <1>        -0.0350 
     29 C29       -13.9301   15.7583   -1.3697 C.3       1 <1>        -0.0629 
     30 C30       -12.4323   13.4152    0.1455 C.3       1 <1>        -0.0440 
     31 H15       -12.6841   13.3077   -2.0147 H         1 <1>         0.0551 
     32 H16       -12.1104   15.6880   -2.5300 H         1 <1>         0.0291 
     33 H17       -11.8416   16.0215   -0.7984 H         1 <1>         0.0291 
     34 H18       -14.0961   16.8110   -1.6489 H         1 <1>         0.0231 
     35 H19       -14.2811   15.6269   -0.3359 H         1 <1>         0.0231 
     36 H20       -14.5333   15.1231   -2.0359 H         1 <1>         0.0231 
     37 C37        -8.7119   10.9404   -5.1675 C.3       1 <1>        -0.0215 
     38 H1        -10.4061   11.6199   -4.0004 H         1 <1>         0.0272 
     39 H4        -10.6906   10.1085   -4.8565 H         1 <1>         0.0272 
     40 H6         -8.0201    6.8024   -3.6901 H         1 <1>         0.0259 
     41 H21        -7.2196    8.2334   -3.0191 H         1 <1>         0.0259 
     42 H22        -7.9054    8.2683   -4.6620 H         1 <1>         0.0259 
     43 H23       -13.5085   13.4926    0.3557 H         1 <1>         0.0258 
     44 H24       -11.8804   14.0136    0.8858 H         1 <1>         0.0258 
     45 H25       -12.1471   12.3584    0.2695 H         1 <1>         0.0258 
     46 H26        -8.5217   10.0804   -5.8245 H         1 <1>         0.0294 
     47 H27        -7.8088   11.1358   -4.5703 H         1 <1>         0.0294 
     48 C48        -8.9834   12.1424   -6.1164 C.3       1 <1>         0.0901 
     49 C49        -7.8000   12.3780   -7.0868 C.3       1 <1>         0.0062 
     50 C50        -8.1542   13.6011   -7.9612 C.3       1 <1>         0.0758 
     51 C51        -9.4681   13.2754   -8.7012 C.3       1 <1>         0.0748 
     52 C52       -10.5392   12.6629   -7.8334 C.2       1 <1>         0.2365 
     53 O53       -10.2353   11.8851   -6.7828 O.3       1 <1>        -0.2734 
     54 O54       -11.7127   12.8244   -8.1241 O.2       1 <1>        -0.3703 
     55 H28        -9.1134   13.0499   -5.4994 H         1 <1>         0.0650 
     56 H29        -7.6436   11.4938   -7.7247 H         1 <1>         0.0320 
     57 H30        -6.8732   12.5749   -6.5234 H         1 <1>         0.0320 
     58 O58        -7.1312   13.8516   -8.9402 O.3       1 <1>        -0.3892 
     59 H32        -8.3025   14.4976   -7.3310 H         1 <1>         0.0620 
     60 H33        -9.2551   12.5385   -9.4901 H         1 <1>         0.0544 
     61 H34        -9.8529   14.1865   -9.1855 H         1 <1>         0.0544 
     62 H31        -6.2840   14.0560   -8.5556 H         1 <1>         0.2100 
@<TRIPOS>BOND
     1    2    1 1    
     2    2    3 1    
     3    3    4 1    
     4    4    5 1    
     5    5    6 2    
     6    1    7 1    
     7    7    8 1    
     8    8    9 1    
     9    1   10 1    
    10    1   11 1    
    11    2   12 1    
    12    2   13 1    
    13    3   14 1    
    14    3   15 1    
    15    4   16 1    
    16    4   17 1    
    17    5   18 1    
    18    6   19 1    
    19    7   20 1    
    20    7   21 1    
    21    8   22 1    
    22    8   23 1    
    23    9   24 1    
    24   10   25 1    
    25   25   26 2    
    26   25   27 1    
    27   27   28 1    
    28   28   29 1    
    29   12    9 2    
    30    6   12 1    
    31   27   30 1    
    32   27   31 1    
    33   28   32 1    
    34   28   33 1    
    35   29   34 1    
    36   29   35 1    
    37   29   36 1    
    38   14   37 1    
    39   14   38 1    
    40   14   39 1    
    41   16   40 1    
    42   16   41 1    
    43   16   42 1    
    44   30   43 1    
    45   30   44 1    
    46   30   45 1    
    47   37   46 1    
    48   37   47 1    
    49   37   48 1    
    50   48   49 1    
    51   49   50 1    
    52   50   51 1    
    53   51   52 1    
    54   52   53 1    
    55   48   53 1    
    56   52   54 2    
    57   48   55 1    
    58   49   56 1    
    59   49   57 1    
    60   50   58 1    
    61   50   59 1    
    62   51   60 1    
    63   51   61 1    
    64   58   62 1    
@<TRIPOS>SUBSTRUCTURE
     1 ****        2 TEMP              0 ****  ****    0 ROOT 
@<TRIPOS>NORMAL
@<TRIPOS>FF_PBC
FORCE_FIELD_SETUP_FEATURE Force Field Setup information
v1.0  0 0.000000 0.000000 0.000000 0.000000 0.000000 0.000000 NONE 0 0 0 0 1 0 0 0 0 0 0 0 0
