#	Name:			PISM00921.1
#	Creating user name:	baoopengkun
#	Creation time:		Fri Dec 14 10:31:16 2018

#	Modifying user name:	baoopengkun
#	Modification time:	Fri Dec 14 11:03:29 2018

@<TRIPOS>MOLECULE
PISM00921.1
   43    45     1     1     0
SMALL
GAST_HUCK


@<TRIPOS>ATOM
      1 C1         30.6332   10.1507  -16.6636 C.ar      1 <1>        -0.0145 
      2 C2         31.3202    8.9528  -16.9081 C.ar      1 <1>         0.0720 
      3 C3         30.8499    7.7460  -16.3599 C.ar      1 <1>        -0.0299 
      4 C4         29.7276    7.7086  -15.5219 C.ar      1 <1>        -0.0474 
      5 C5         29.0661    8.9118  -15.2832 C.ar      1 <1>         0.0608 
      6 C6         29.5057   10.1008  -15.8455 C.ar      1 <1>         0.0637 
      7 C7         28.5392   11.1570  -15.3707 C.2       1 <1>         0.2418 
      8 N8         27.6083   10.5936  -14.5762 N.am      1 <1>        -0.1418 
      9 C9         27.8473    9.2726  -14.4705 C.2       1 <1>         0.2355 
     10 O10        28.6118   12.3338  -15.6802 O.2       1 <1>        -0.3668 
     11 O11        27.1901    8.4738  -13.8259 O.2       1 <1>        -0.3726 
     12 C12        26.5349   11.3081  -13.9089 C.3       1 <1>         0.2214 
     13 O13        27.1058   12.1469  -12.8849 O.3       1 <1>        -0.2348 
     14 C14        26.8221   13.3904  -13.2535 C.2       1 <1>         0.2491 
     15 C15        26.0516   13.5196  -14.4856 C.2       1 <1>         0.0288 
     16 C16        25.8705   12.2592  -14.8753 C.2       1 <1>        -0.0059 
     17 C17        25.5828   14.7784  -15.1620 C.3       1 <1>        -0.0323 
     18 O18        27.1758   14.3539  -12.5956 O.2       1 <1>        -0.3691 
     19 N19        32.4306    8.9809  -17.6865 N.pl3     1 <1>        -0.2358 
     20 C20        33.5245    8.3449  -17.3564 C.2       1 <1>         0.2019 
     21 O21        33.6270    7.6997  -16.3264 O.2       1 <1>        -0.3789 
     22 C22        34.7157    8.4225  -18.2844 C.3       1 <1>         0.0429 
     23 C23        35.9246    7.5807  -17.7914 C.3       1 <1>        -0.0356 
     24 C24        37.1220    7.6745  -18.7762 C.3       1 <1>        -0.0538 
     25 C25        38.3256    6.8312  -18.2809 C.3       1 <1>        -0.0651 
     26 H1         30.9624   11.0926  -17.0886 H         1 <1>         0.0597 
     27 H2         31.3541    6.8134  -16.5911 H         1 <1>         0.0574 
     28 H3         29.3786    6.7835  -15.0747 H         1 <1>         0.0651 
     29 H4         25.7934   10.6247  -13.4623 H         1 <1>         0.1152 
     30 H5         25.3294   11.9534  -15.7696 H         1 <1>         0.0702 
     31 H6         25.7616   14.7122  -16.2457 H         1 <1>         0.0347 
     32 H7         26.1278   15.6477  -14.7643 H         1 <1>         0.0347 
     33 H8         24.5067   14.9154  -14.9801 H         1 <1>         0.0347 
     34 H9         32.4120    9.5416  -18.5515 H         1 <1>         0.2126 
     35 H10        35.0184    9.4778  -18.3705 H         1 <1>         0.0511 
     36 H11        34.4046    8.0624  -19.2775 H         1 <1>         0.0511 
     37 H12        35.6142    6.5270  -17.6929 H         1 <1>         0.0290 
     38 H13        36.2380    7.9434  -16.7983 H         1 <1>         0.0290 
     39 H14        37.4368    8.7267  -18.8767 H         1 <1>         0.0264 
     40 H15        36.8132    7.3102  -19.7704 H         1 <1>         0.0264 
     41 H16        38.0411    5.7712  -18.1904 H         1 <1>         0.0230 
     42 H17        38.6681    7.1904  -17.2979 H         1 <1>         0.0230 
     43 H18        39.1623    6.9094  -18.9932 H         1 <1>         0.0230 
@<TRIPOS>BOND
     1    2    1 ar   
     2    2    3 ar   
     3    3    4 ar   
     4    4    5 ar   
     5    6    5 ar   
     6    1    6 ar   
     7    6    7 1    
     8    7    8 am   
     9    9    8 am   
    10    5    9 1    
    11    7   10 2    
    12    9   11 2    
    13    8   12 1    
    14   12   13 1    
    15   13   14 1    
    16   15   14 1    
    17   16   15 2    
    18   12   16 1    
    19   15   17 1    
    20   14   18 2    
    21    2   19 1    
    22   19   20 1    
    23   20   21 2    
    24   20   22 1    
    25   22   23 1    
    26   23   24 1    
    27   24   25 1    
    28    1   26 1    
    29    3   27 1    
    30    4   28 1    
    31   12   29 1    
    32   16   30 1    
    33   17   31 1    
    34   17   32 1    
    35   17   33 1    
    36   19   34 1    
    37   22   35 1    
    38   22   36 1    
    39   23   37 1    
    40   23   38 1    
    41   24   39 1    
    42   24   40 1    
    43   25   41 1    
    44   25   42 1    
    45   25   43 1    
@<TRIPOS>SUBSTRUCTURE
     1 ****        2 TEMP              0 ****  ****    0 ROOT 
@<TRIPOS>NORMAL
@<TRIPOS>FF_PBC
FORCE_FIELD_SETUP_FEATURE Force Field Setup information
v1.0  0 0.000000 0.000000 0.000000 0.000000 0.000000 0.000000 NONE 0 0 0 0 1 0 0 0 0 0 0 0 0
