#	Name:			PISM01186
#	Creating user name:	baoopengkun
#	Creation time:		Tue Dec 18 21:57:43 2018

#	Modifying user name:	baoopengkun
#	Modification time:	Tue Dec 18 21:58:54 2018

@<TRIPOS>MOLECULE
PISM01186
   43    44     1     1     0
SMALL
GAST_HUCK


@<TRIPOS>ATOM
      1 C1         12.4557   28.6702  -31.8956 C.ar      1 <1>        -0.0537 
      2 C2         13.2886   29.7253  -32.2716 C.ar      1 <1>        -0.0594 
      3 C3         12.7454   30.9916  -32.4892 C.ar      1 <1>        -0.0345 
      4 C4         11.3743   31.2096  -32.3264 C.ar      1 <1>         0.1158 
      5 C5         10.5269   30.1330  -32.0187 C.ar      1 <1>         0.0090 
      6 C6         11.0738   28.8636  -31.7649 C.ar      1 <1>        -0.0024 
      7 S7         10.7800   32.8838  -32.5305 S.o2      1 <1>         0.0688 
      8 O8          9.8348   32.9168  -33.6291 O.2       1 <1>        -0.1503 
      9 O9         11.9069   33.7950  -32.5442 O.2       1 <1>        -0.1503 
     10 N10         9.9743   33.1362  -31.1318 N.am      1 <1>        -0.2474 
     11 C11        10.5114   32.7236  -29.8402 C.3       1 <1>         0.0266 
     12 C12        10.2628   33.8114  -28.7627 C.3       1 <1>        -0.0361 
     13 C13        10.8660   33.4020  -27.3910 C.3       1 <1>        -0.0516 
     14 C14        10.6134   34.4925  -26.3142 C.3       1 <1>        -0.0519 
     15 C15        11.2151   34.0818  -24.9421 C.3       1 <1>        -0.0406 
     16 C16        10.9645   35.1660  -23.8611 C.3       1 <1>        -0.0069 
     17 N17        11.5972   34.7653  -22.5858 N.3       1 <1>        -0.3300 
     18 C18        10.2356   27.8040  -31.3850 C.ar      1 <1>         0.0484 
     19 C19         8.8557   27.9955  -31.2913 C.ar      1 <1>        -0.0473 
     20 C20         8.3031   29.2421  -31.5847 C.ar      1 <1>        -0.0607 
     21 C21         9.1361   30.2988  -31.9576 C.ar      1 <1>        -0.0521 
     22 Cl22       10.8689   26.2095  -31.0131 Cl        1 <1>        -0.0689 
     23 H1         12.9114   27.7034  -31.7122 H         1 <1>         0.0622 
     24 H2         14.3556   29.5624  -32.3931 H         1 <1>         0.0618 
     25 H3         13.3979   31.8064  -32.7840 H         1 <1>         0.0637 
     26 H4          9.0864   33.5990  -31.1589 H         1 <1>         0.1672 
     27 H5         11.5965   32.5510  -29.9259 H         1 <1>         0.0475 
     28 H6         10.0347   31.7773  -29.5373 H         1 <1>         0.0475 
     29 H7          9.1777   33.9713  -28.6527 H         1 <1>         0.0281 
     30 H8         10.7190   34.7553  -29.1037 H         1 <1>         0.0281 
     31 H9         11.9518   33.2454  -27.5009 H         1 <1>         0.0266 
     32 H10        10.4116   32.4526  -27.0629 H         1 <1>         0.0266 
     33 H11         9.5280   34.6505  -26.2023 H         1 <1>         0.0266 
     34 H12        11.0685   35.4411  -26.6435 H         1 <1>         0.0266 
     35 H13        12.3023   33.9295  -25.0428 H         1 <1>         0.0277 
     36 H14        10.7632   33.1318  -24.6133 H         1 <1>         0.0277 
     37 H15         9.8801   35.3196  -23.7241 H         1 <1>         0.0422 
     38 H16        11.4109   36.1177  -24.1956 H         1 <1>         0.0422 
     39 H17        11.1611   33.8485  -22.2115 H         1 <1>         0.1182 
     40 H18        11.4864   35.5438  -21.8418 H         1 <1>         0.1182 
     41 H19         8.2130   27.1737  -30.9919 H         1 <1>         0.0623 
     42 H20         7.2286   29.3886  -31.5236 H         1 <1>         0.0617 
     43 H21         8.6678   31.2441  -32.1992 H         1 <1>         0.0625 
@<TRIPOS>BOND
     1    2    1 ar   
     2    2    3 ar   
     3    3    4 ar   
     4    4    5 ar   
     5    5    6 ar   
     6    1    6 ar   
     7    4    7 1    
     8    7    8 2    
     9    7    9 2    
    10    7   10 1    
    11   10   11 1    
    12   11   12 1    
    13   12   13 1    
    14   13   14 1    
    15   14   15 1    
    16   15   16 1    
    17   16   17 1    
    18    6   18 ar   
    19   18   19 ar   
    20   19   20 ar   
    21   20   21 ar   
    22    5   21 ar   
    23   18   22 1    
    24    1   23 1    
    25    2   24 1    
    26    3   25 1    
    27   10   26 1    
    28   11   27 1    
    29   11   28 1    
    30   12   29 1    
    31   12   30 1    
    32   13   31 1    
    33   13   32 1    
    34   14   33 1    
    35   14   34 1    
    36   15   35 1    
    37   15   36 1    
    38   16   37 1    
    39   16   38 1    
    40   17   39 1    
    41   17   40 1    
    42   19   41 1    
    43   20   42 1    
    44   21   43 1    
@<TRIPOS>SUBSTRUCTURE
     1 ****        2 TEMP              0 ****  ****    0 ROOT 
@<TRIPOS>NORMAL
@<TRIPOS>FF_PBC
FORCE_FIELD_SETUP_FEATURE Force Field Setup information
v1.0  0 0.000000 0.000000 0.000000 0.000000 0.000000 0.000000 NONE 0 0 0 0 1 0 0 0 0 0 0 0 0
