#	Name:			PISM00971
#	Creating user name:	baoopengkun
#	Creation time:		Thu Dec 13 11:31:22 2018

#	Modifying user name:	baoopengkun
#	Modification time:	Thu Dec 13 11:32:27 2018

@<TRIPOS>MOLECULE
PISM00971
   22    23     1     1     0
SMALL
GAST_HUCK


@<TRIPOS>ATOM
      1 C1         -0.7783   11.0081   -2.9031 C.ar      1 <1>        -0.0072 
      2 C2          0.1737    9.9854   -2.9823 C.ar      1 <1>        -0.0574 
      3 C3          1.3500   10.0605   -2.2306 C.ar      1 <1>        -0.0685 
      4 C4          1.5784   11.1571   -1.3946 C.ar      1 <1>        -0.0687 
      5 C5          0.6271   12.1774   -1.3085 C.ar      1 <1>        -0.0685 
      6 C6         -0.5490   12.1006   -2.0599 C.ar      1 <1>        -0.0574 
      7 C7         -2.0711   10.9564   -3.7260 C.3       1 <1>         0.1419 
      8 O8         -2.2171    9.7979   -4.5628 O.3       1 <1>        -0.2570 
      9 C9         -2.2114   10.5154   -5.6642 C.2       1 <1>         0.2439 
     10 C10        -2.0415   11.8488   -5.0128 C.3       1 <1>         0.0977 
     11 C11        -0.6920   12.5253   -5.3610 C.3       1 <1>        -0.0393 
     12 O12        -2.3192   10.1831   -6.8318 O.2       1 <1>        -0.3696 
     13 H1          0.0075    9.1287   -3.6273 H         1 <1>         0.0558 
     14 H2          2.0874    9.2660   -2.2960 H         1 <1>         0.0599 
     15 H3          2.4933   11.2161   -0.8129 H         1 <1>         0.0559 
     16 H4          0.8021   13.0291   -0.6580 H         1 <1>         0.0599 
     17 H5         -1.2852   12.8950   -1.9875 H         1 <1>         0.0558 
     18 H6         -2.9701   11.1099   -3.1057 H         1 <1>         0.0844 
     19 H7         -2.9303   12.4864   -5.1413 H         1 <1>         0.0604 
     20 H8          0.1455   11.8130   -5.3004 H         1 <1>         0.0260 
     21 H9         -0.5045   13.3610   -4.6702 H         1 <1>         0.0260 
     22 H10        -0.7396   12.9188   -6.3879 H         1 <1>         0.0260 
@<TRIPOS>BOND
     1    2    1 ar   
     2    2    3 ar   
     3    3    4 ar   
     4    4    5 ar   
     5    5    6 ar   
     6    1    6 ar   
     7    1    7 1    
     8    7    8 1    
     9    8    9 1    
    10    9   10 1    
    11    7   10 1    
    12   10   11 1    
    13    9   12 2    
    14    2   13 1    
    15    3   14 1    
    16    4   15 1    
    17    5   16 1    
    18    6   17 1    
    19    7   18 1    
    20   10   19 1    
    21   11   20 1    
    22   11   21 1    
    23   11   22 1    
@<TRIPOS>SUBSTRUCTURE
     1 ****        2 TEMP              0 ****  ****    0 ROOT 
@<TRIPOS>NORMAL
@<TRIPOS>FF_PBC
FORCE_FIELD_SETUP_FEATURE Force Field Setup information
v1.0  0 0.000000 0.000000 0.000000 0.000000 0.000000 0.000000 NONE 0 0 0 0 1 0 0 0 0 0 0 0 0
