#	Name:			PISM00239
#	Creating user name:	14062
#	Creation time:		Tue Jun 18 21:26:04 2019

#	Modifying user name:	14062
#	Modification time:	Tue Jun 18 21:36:17 2019

@<TRIPOS>MOLECULE
PISM00239
   25    26     1     2     0
SMALL
NO_CHARGES


@<TRIPOS>ATOM
      1 C1          3.6105    3.6315    0.0871 C.ar      1 <1>         0.0000 
      2 C2          4.5671    2.6198   -0.0304 C.ar      1 <1>         0.0000 
      3 C3          4.1645    1.2918   -0.1923 C.ar      1 <1>         0.0000 
      4 C4          2.8050    0.9744   -0.2377 C.ar      1 <1>         0.0000 
      5 C5          1.8465    1.9863   -0.1103 C.ar      1 <1>         0.0000 
      6 C6          2.2504    3.3132    0.0566 C.ar      1 <1>         0.0000 
      7 C7          0.4866    1.6706   -0.1514 C.ar      1 <1>         0.0000 
      8 C8          0.0825    0.3465   -0.3407 C.ar      1 <1>         0.0000 
      9 C9          1.0407   -0.6604   -0.4893 C.ar      1 <1>         0.0000 
     10 C10         2.4009   -0.3509   -0.4127 C.ar      1 <1>         0.0000 
     11 C11         0.6186   -2.1045   -0.7415 C.3       1 <1>         0.0000 
     12 O12        -0.5113   -2.4608    0.0644 O.3       1 <1>         0.0000 
     13 C13        -0.9167   -3.7114   -0.1772 C.2       1 <1>         0.0000 
     14 O14        -1.8872   -4.1406    0.4247 O.2       1 <1>         0.0000 
     15 O15        -0.3024   -4.5106   -1.0504 O.3       1 <1>         0.0000 
     16 H1          3.9235    4.6629    0.2018 H         1 <1>         0.0000 
     17 H2          5.6223    2.8655    0.0041 H         1 <1>         0.0000 
     18 H3          4.9074    0.5075   -0.2826 H         1 <1>         0.0000 
     19 H4          1.5083    4.0962    0.1625 H         1 <1>         0.0000 
     20 H5         -0.2552    2.4526   -0.0364 H         1 <1>         0.0000 
     21 H6         -0.9727    0.1003   -0.3722 H         1 <1>         0.0000 
     22 H7          3.1417   -1.1385   -0.4890 H         1 <1>         0.0000 
     23 H8          1.4582   -2.7719   -0.4976 H         1 <1>         0.0000 
     24 H9          0.3537   -2.2212   -1.8027 H         1 <1>         0.0000 
     25 H10        -0.7431   -5.3518   -1.0741 H         1 <1>         0.0000 
@<TRIPOS>BOND
     1    2    1 ar   
     2    2    3 ar   
     3    3    4 ar   
     4    4    5 ar   
     5    5    6 ar   
     6    1    6 ar   
     7    5    7 ar   
     8    7    8 ar   
     9    8    9 ar   
    10    9   10 ar   
    11    4   10 ar   
    12    9   11 1    
    13   11   12 1    
    14   12   13 1    
    15   13   14 2    
    16   13   15 1    
    17    1   16 1    
    18    2   17 1    
    19    3   18 1    
    20    6   19 1    
    21    7   20 1    
    22    8   21 1    
    23   10   22 1    
    24   11   23 1    
    25   11   24 1    
    26   15   25 1    
@<TRIPOS>SUBSTRUCTURE
     1 ****        2 TEMP              0 ****  ****    0 ROOT 
@<TRIPOS>NORMAL
@<TRIPOS>FF_PBC
FORCE_FIELD_SETUP_FEATURE Force Field Setup information
v1.0  0 0.000000 0.000000 0.000000 0.000000 0.000000 0.000000 NONE 0 0 0 0 0 0 0 0 0 0 0 0 0
@<TRIPOS>RENDERING_ATTRS
ANTIALIASED_LINES 
*
