#	Name:			PISM00750
#	Creating user name:	baoopengkun
#	Creation time:		Thu Jan 24 23:54:49 2019

#	Modifying user name:	baoopengkun
#	Modification time:	Thu Jan 24 23:57:27 2019

@<TRIPOS>MOLECULE
PISM00750
   64    68     1     1     0
SMALL
GAST_HUCK


@<TRIPOS>ATOM
      1 C1        -13.1429    9.0892    9.1321 C.2       1 <1>         0.0355 
      2 C2        -14.4426    8.7489    9.0357 C.2       1 <1>        -0.0236 
      3 N3        -14.6848    8.9740    7.6376 N.2       1 <1>        -0.3303 
      4 C4        -13.6391    9.3805    7.0767 C.2       1 <1>         0.0968 
      5 N5        -12.6758    9.4618    7.9578 N.pl3     1 <1>        -0.2556 
      6 C6        -11.2741    9.8970    7.7584 C.3       1 <1>         0.0891 
      7 C7        -10.2595   10.0659    6.5632 C.3       1 <1>         0.1895 
      8 O8         -9.6133   11.3588    6.6669 O.3       1 <1>        -0.3825 
      9 C9         -8.3161   11.2072    7.2656 C.3       1 <1>         0.0669 
     10 C10        -8.3576    9.7711    7.8081 C.3       1 <1>         0.0996 
     11 O11        -9.1203    9.1930    6.7440 O.3       1 <1>        -0.3769 
     12 C12       -10.9297    9.9562    5.1729 C.ar      1 <1>         0.0198 
     13 C13       -11.4153   11.1159    4.5565 C.ar      1 <1>        -0.0348 
     14 C14       -12.0989   11.0482    3.3402 C.ar      1 <1>        -0.0183 
     15 C15       -12.2767    9.8131    2.7117 C.ar      1 <1>         0.0716 
     16 C16       -11.7471    8.6591    3.2930 C.ar      1 <1>        -0.0038 
     17 C17       -11.0803    8.7243    4.5189 C.ar      1 <1>         0.0705 
     18 Cl18      -10.4545    7.2415    5.2126 Cl        1 <1>        -0.0423 
     19 Cl19      -13.1609    9.7161    1.2027 Cl        1 <1>        -0.0423 
     20 C20        -6.9676    9.1516    8.0759 C.3       1 <1>         0.0948 
     21 O21        -6.3632   10.0317    9.0401 O.3       1 <1>        -0.3239 
     22 C22        -5.4582    9.4970    9.9555 C.ar      1 <1>         0.0777 
     23 C23        -4.2607    8.9117    9.5423 C.ar      1 <1>        -0.0443 
     24 C24        -3.3420    8.4652   10.4991 C.ar      1 <1>        -0.0524 
     25 C25        -3.6593    8.4536   11.8655 C.ar      1 <1>         0.0295 
     26 C26        -4.8948    8.9922   12.2569 C.ar      1 <1>        -0.0524 
     27 C27        -5.7578    9.5591   11.3173 C.ar      1 <1>        -0.0443 
     28 N28        -2.7981    7.9347   12.7870 N.pl3     1 <1>        -0.3108 
     29 C29        -1.8387    6.8910   12.4182 C.3       1 <1>         0.0451 
     30 C30        -1.5348    5.9596   13.6186 C.3       1 <1>         0.0531 
     31 N31        -1.0824    6.7447   14.7659 N.am      1 <1>        -0.2697 
     32 C32        -1.4561    8.1536   14.8885 C.3       1 <1>         0.0531 
     33 C33        -2.8175    8.3859   14.1816 C.3       1 <1>         0.0451 
     34 C34        -0.3189    6.1245   15.7070 C.2       1 <1>         0.1755 
     35 O35        -0.0700    4.9343   15.6272 O.2       1 <1>        -0.3972 
     36 C36         0.2493    6.8503   16.9022 C.3       1 <1>         0.0258 
     37 H1        -12.5679    9.0553   10.0569 H         1 <1>         0.0860 
     38 H2        -15.1285    8.3977    9.8057 H         1 <1>         0.0444 
     39 H3        -13.5864    9.6192    6.0143 H         1 <1>         0.1214 
     40 H4        -11.3072    8.8726    7.3517 H         1 <1>         0.0574 
     41 H5        -11.7591   10.8112    7.3786 H         1 <1>         0.0574 
     42 H6         -8.1072   11.9680    8.0328 H         1 <1>         0.0575 
     43 H7         -7.5670   11.2796    6.4618 H         1 <1>         0.0575 
     44 H8         -8.9170    9.7476    8.7596 H         1 <1>         0.0635 
     45 H9        -11.2704   12.0861    5.0232 H         1 <1>         0.0847 
     46 H10       -12.4936   11.9501    2.8826 H         1 <1>         0.0703 
     47 H11       -11.8577    7.7051    2.7881 H         1 <1>         0.0708 
     48 H12        -6.3621    9.0863    7.1586 H         1 <1>         0.0635 
     49 H13        -7.1224    8.1371    8.4792 H         1 <1>         0.0635 
     50 H14        -4.0415    8.8120    8.4841 H         1 <1>         0.0511 
     51 H15        -2.3690    8.1338   10.1530 H         1 <1>         0.0490 
     52 H16        -5.2139    8.9768   13.2927 H         1 <1>         0.0490 
     53 H17        -6.6717   10.0495   11.6375 H         1 <1>         0.0511 
     54 H18        -0.9053    7.3776   12.0922 H         1 <1>         0.0529 
     55 H19        -2.2201    6.2574   11.5996 H         1 <1>         0.0529 
     56 H20        -0.7752    5.2258   13.2994 H         1 <1>         0.0541 
     57 H21        -2.4500    5.4153   13.8995 H         1 <1>         0.0541 
     58 H22        -0.6850    8.7760   14.4065 H         1 <1>         0.0541 
     59 H23        -1.5742    8.4776   15.9350 H         1 <1>         0.0541 
     60 H24        -3.0578    9.4608   14.2483 H         1 <1>         0.0529 
     61 H25        -3.5876    7.8096   14.7203 H         1 <1>         0.0529 
     62 H26        -0.5363    6.9797   17.6607 H         1 <1>         0.0467 
     63 H27         0.6617    7.8287   16.6183 H         1 <1>         0.0467 
     64 H28         1.0651    6.2579   17.3449 H         1 <1>         0.0467 
@<TRIPOS>BOND
     1    2    1 2    
     2    2    3 1    
     3    3    4 2    
     4    4    5 1    
     5    1    5 1    
     6    5    6 1    
     7    6    7 1    
     8    7    8 1    
     9    8    9 1    
    10    9   10 1    
    11   10   11 1    
    12    7   11 1    
    13    7   12 1    
    14   12   13 ar   
    15   13   14 ar   
    16   14   15 ar   
    17   15   16 ar   
    18   16   17 ar   
    19   12   17 ar   
    20   17   18 1    
    21   15   19 1    
    22   10   20 1    
    23   20   21 1    
    24   21   22 1    
    25   22   23 ar   
    26   23   24 ar   
    27   24   25 ar   
    28   25   26 ar   
    29   26   27 ar   
    30   22   27 ar   
    31   25   28 1    
    32   28   29 1    
    33   29   30 1    
    34   30   31 1    
    35   31   32 1    
    36   32   33 1    
    37   28   33 1    
    38   31   34 am   
    39   34   35 2    
    40   34   36 1    
    41    1   37 1    
    42    2   38 1    
    43    4   39 1    
    44    6   40 1    
    45    6   41 1    
    46    9   42 1    
    47    9   43 1    
    48   10   44 1    
    49   13   45 1    
    50   14   46 1    
    51   16   47 1    
    52   20   48 1    
    53   20   49 1    
    54   23   50 1    
    55   24   51 1    
    56   26   52 1    
    57   27   53 1    
    58   29   54 1    
    59   29   55 1    
    60   30   56 1    
    61   30   57 1    
    62   32   58 1    
    63   32   59 1    
    64   33   60 1    
    65   33   61 1    
    66   36   62 1    
    67   36   63 1    
    68   36   64 1    
@<TRIPOS>SUBSTRUCTURE
     1 ****        2 TEMP              0 ****  ****    0 ROOT 
@<TRIPOS>NORMAL
@<TRIPOS>FF_PBC
FORCE_FIELD_SETUP_FEATURE Force Field Setup information
v1.0  0 0.000000 0.000000 0.000000 0.000000 0.000000 0.000000 NONE 0 0 0 0 1 0 0 0 0 0 0 0 0
