#	Name:			PISM00633.2
#	Creating user name:	baoopengkun
#	Creation time:		Sat Dec 08 23:32:52 2018

#	Modifying user name:	baoopengkun
#	Modification time:	Sat Dec 08 23:33:38 2018

@<TRIPOS>MOLECULE
PISM00633.2
   52    55     1     2     0
SMALL
GAST_HUCK


@<TRIPOS>ATOM
      1 C1         -4.2666   17.7125   -1.5687 C.ar      1 PHENYL     -0.0348 
      2 C2         -5.4490   17.6855   -2.3126 C.ar      1 PHENYL     -0.0183 
      3 C3         -5.7555   16.5688   -3.0932 C.ar      1 PHENYL      0.0716 
      4 C4         -4.8720   15.4877   -3.1302 C.ar      1 PHENYL     -0.0038 
      5 C5         -3.6906   15.5137   -2.3838 C.ar      1 PHENYL      0.0705 
      6 C6         -3.3695   16.6377   -1.6109 C.ar      1 PHENYL      0.0199 
      7 C7         -2.0680   16.7150   -0.7985 C.3       1 PHENYL      0.1912 
      8 C8         -2.3027   16.0657    0.5854 C.3       1 PHENYL      0.1066 
      9 N9         -3.4745   16.6450    1.2270 N.pl3     1 PHENYL     -0.1816 
     10 N10        -3.4970   17.7412    2.0363 N.2       1 PHENYL     -0.1908 
     11 C11        -4.6650   18.0129    2.4871 C.2       1 PHENYL      0.0618 
     12 N12        -5.4349   16.9569    1.8882 N.2       1 PHENYL     -0.2870 
     13 C13        -4.6991   16.2158    1.1936 C.2       1 PHENYL      0.1270 
     14 O14        -1.6512   18.0883   -0.6723 O.3       1 PHENYL     -0.3824 
     15 C15        -0.2265   18.1288   -0.7804 C.3       1 PHENYL      0.0669 
     16 C16        -0.0457   17.0738   -1.8848 C.3       1 PHENYL      0.0997 
     17 O17        -0.9501   16.0635   -1.4284 O.3       1 PHENYL     -0.3768 
     18 Cl18       -7.2408   16.5205   -4.0202 Cl        1 PHENYL     -0.0423 
     19 H1         -4.0488   18.5771   -0.9490 H         1 PHENYL      0.0847 
     20 H2         -6.1304   18.5299   -2.2862 H         1 PHENYL      0.0703 
     21 H3         -5.1078   14.6224   -3.7412 H         1 PHENYL      0.0708 
     22 Cl22       -2.6401   14.1121   -2.4316 Cl        1 PHENYL     -0.0423 
     23 H5         -1.4248   16.2371    1.2249 H         1 PHENYL      0.0592 
     24 H6         -2.4351   14.9802    0.4574 H         1 PHENYL      0.0592 
     25 H7         -4.9821   18.8216    3.1447 H         1 PHENYL      0.0863 
     26 H8         -5.0559   15.3426    0.6475 H         1 PHENYL      0.1361 
     27 H11         0.2451   17.8123    0.1635 H         1 PHENYL      0.0575 
     28 C28         1.3989   16.5355   -1.9802 C.3       1 PHENYL      0.0952 
     29 H9          0.1415   19.1277   -1.0605 H         1 PHENYL      0.0575 
     30 H10        -0.3869   17.4845   -2.8497 H         1 PHENYL      0.0635 
     31 C           3.6462   17.3413   -2.1661 C.ar      1 PHENYL      0.1201 
     32 C           4.2667   16.4053   -3.0039 C.ar      1 PHENYL      0.1229 
     33 C           5.6225   16.1116   -2.8381 C.ar      1 PHENYL     -0.0412 
     34 O34         2.2830   17.6299   -2.2818 O.3       1 PHENYL     -0.3192 
     35 H15         1.4317   15.7549   -2.7549 H         1 PHENYL      0.0635 
     36 H16         1.6662   16.0808   -1.0127 H         1 PHENYL      0.0635 
     37 C           6.3737   16.7710   -1.8612 C.ar      1 PHENYL     -0.0819 
     38 C           5.7617   17.7218   -1.0401 C.ar      1 PHENYL     -0.0819 
     39 C           4.4010   18.0032   -1.1945 C.ar      1 PHENYL     -0.0414 
     40 O40         3.5500   15.7602   -4.0110 O.3       1 PHENYL     -0.3083 
     41 C41         3.2786   16.5807   -5.1572 C.3       1 PHENYL      0.0963 
     42 C42         2.5463   15.7191   -6.1524 C.2       1 PHENYL     -0.0596 
     43 C43         1.3319   16.0143   -6.6351 C.2       1 PHENYL     -0.1150 
     44 H4          6.0901   15.3692   -3.4758 H         1 PHENYL      0.0509 
     45 H12         7.4294   16.5455   -1.7426 H         1 PHENYL      0.0495 
     46 H13         6.3438   18.2409   -0.2840 H         1 PHENYL      0.0495 
     47 H14         3.9208   18.7388   -0.5577 H         1 PHENYL      0.0509 
     48 H17         4.2224   16.9216   -5.6118 H         1 PHENYL      0.0791 
     49 H18         2.6845   17.4633   -4.8715 H         1 PHENYL      0.0791 
     50 H19         3.0450   14.8074   -6.4845 H         1 PHENYL      0.0698 
     51 H20         0.8512   15.3506   -7.3552 H         1 PHENYL      0.0291 
     52 H21         0.7974   16.9127   -6.3269 H         1 PHENYL      0.0291 
@<TRIPOS>BOND
     1    1    2 ar   
     2    2    3 ar   
     3    4    3 ar   
     4    5    4 ar   
     5    6    5 ar   
     6    6    1 ar   
     7    7    6 1    
     8    7    8 1    
     9    8    9 1    
    10    9   10 1    
    11   10   11 2    
    12   12   11 1    
    13   13   12 2    
    14    9   13 1    
    15    7   14 1    
    16   15   14 1    
    17   16   15 1    
    18   16   17 1    
    19   17    7 1    
    20    3   18 1    
    21    1   19 1    
    22    2   20 1    
    23    4   21 1    
    24    5   22 1    
    25    8   23 1    
    26    8   24 1    
    27   11   25 1    
    28   13   26 1    
    29   15   27 1    
    30   28   16 1    
    31   15   29 1    
    32   16   30 1    
    33   31   32 ar   
    34   31   39 ar   
    35   39   38 ar   
    36   34   28 1    
    37   28   35 1    
    38   28   36 1    
    39   38   37 ar   
    40   33   37 ar   
    41   32   33 ar   
    42   31   34 1    
    43   32   40 1    
    44   40   41 1    
    45   41   42 1    
    46   42   43 2    
    47   33   44 1    
    48   37   45 1    
    49   38   46 1    
    50   39   47 1    
    51   41   48 1    
    52   41   49 1    
    53   42   50 1    
    54   43   51 1    
    55   43   52 1    
@<TRIPOS>SUBSTRUCTURE
     1 PHENYL     31 PERM              0 ****  ****    0 ROOT 
@<TRIPOS>NORMAL
@<TRIPOS>FF_PBC
FORCE_FIELD_SETUP_FEATURE Force Field Setup information
v1.0  0 0.000000 0.000000 0.000000 0.000000 0.000000 0.000000 NONE 0 0 0 0 1 0 0 0 0 0 0 0 0
@<TRIPOS>RENDERING_ATTRS
ANTIALIASED_LINES 
*
