#	Name:			PISM01004.1
#	Creating user name:	malab
#	Creation time:		Mon Jul 01 21:55:25 2019

#	Modifying user name:	malab
#	Modification time:	Mon Jul 01 21:58:48 2019

@<TRIPOS>MOLECULE
PISM01004.1
   56    58     1     1     0
SMALL
GAST_HUCK


@<TRIPOS>ATOM
      1 C1         18.9075   11.9960   23.7101 C.3       1 <1>        -0.0652 
      2 C2         18.2369   11.8347   25.0991 C.3       1 <1>        -0.0535 
      3 C3         18.9045   10.6963   25.9178 C.3       1 <1>        -0.0253 
      4 C4         18.2415   10.5290   27.3076 C.3       1 <1>         0.0704 
      5 O5         18.9095    9.4644   28.0050 O.3       1 <1>        -0.3180 
      6 C6         18.3970    9.2213   29.2778 C.ar      1 <1>         0.0912 
      7 C7         17.3084    8.3609   29.4404 C.ar      1 <1>        -0.0313 
      8 C8         16.7729    8.1448   30.7133 C.ar      1 <1>        -0.0440 
      9 C9         17.3238    8.7914   31.8241 C.ar      1 <1>         0.0971 
     10 C10        18.4360    9.6230   31.6636 C.ar      1 <1>        -0.0440 
     11 C11        18.9718    9.8394   30.3908 C.ar      1 <1>        -0.0313 
     12 S12        16.5820    8.6138   33.4267 S.o2      1 <1>         0.0658 
     13 O13        17.6096    8.7579   34.4392 O.2       1 <1>        -0.1515 
     14 O14        15.7392    7.4341   33.4368 O.2       1 <1>        -0.1515 
     15 N15        15.6252    9.9649   33.3903 N.am      1 <1>        -0.2314 
     16 C16        16.0455   11.2065   34.0316 C.3       1 <1>         0.0499 
     17 C17        16.1527   12.3003   32.9404 C.3       1 <1>         0.0529 
     18 N18        14.9239   12.2666   32.1394 N.am      1 <1>        -0.2456 
     19 C19        14.5150   11.0119   31.5038 C.3       1 <1>         0.0529 
     20 C20        14.3884    9.9448   32.6171 C.3       1 <1>         0.0499 
     21 C21        14.1573   13.3769   31.9771 C.2       1 <1>         0.3273 
     22 O22        13.1364   13.3903   31.3080 O.2       1 <1>        -0.3772 
     23 C23        13.6969   15.6103   32.4407 C.3       1 <1>         0.2419 
     24 C24        12.3958   15.3933   33.1824 C.2       1 <1>        -0.0022 
     25 C25        12.2777   16.2580   34.1878 C.2       1 <1>         0.0291 
     26 C26        13.4988   17.0492   34.1009 C.2       1 <1>         0.2494 
     27 O27        14.3199   16.7257   33.1098 O.3       1 <1>        -0.2315 
     28 O28        13.7515   17.9525   34.8794 O.2       1 <1>        -0.3691 
     29 C29        11.1580   16.3833   35.1845 C.3       1 <1>        -0.0323 
     30 O30        14.5795   14.4858   32.5962 O.3       1 <1>        -0.2137 
     31 H1         18.8192   11.0640   23.1301 H         1 <1>         0.0230 
     32 H2         19.9749   12.2413   23.8249 H         1 <1>         0.0230 
     33 H3         18.4205   12.8071   23.1457 H         1 <1>         0.0230 
     34 H4         17.1663   11.6098   24.9584 H         1 <1>         0.0263 
     35 H5         18.3203   12.7853   25.6520 H         1 <1>         0.0263 
     36 H6         19.9748   10.9183   26.0608 H         1 <1>         0.0291 
     37 H7         18.8207    9.7439   25.3689 H         1 <1>         0.0291 
     38 H8         17.1726   10.2888   27.1831 H         1 <1>         0.0614 
     39 H9         18.3322   11.4676   27.8793 H         1 <1>         0.0614 
     40 H10        16.8824    7.8639   28.5751 H         1 <1>         0.0542 
     41 H11        15.9279    7.4764   30.8373 H         1 <1>         0.0608 
     42 H12        18.8814   10.1027   32.5287 H         1 <1>         0.0608 
     43 H13        19.8324   10.4872   30.2606 H         1 <1>         0.0542 
     44 H14        17.0060   11.1108   34.5611 H         1 <1>         0.0498 
     45 H15        15.2790   11.5013   34.7657 H         1 <1>         0.0498 
     46 H16        16.9987   12.0609   32.2774 H         1 <1>         0.0538 
     47 H17        16.3758   13.2638   33.4256 H         1 <1>         0.0538 
     48 H18        15.2996   10.7047   30.7942 H         1 <1>         0.0538 
     49 H19        13.5641   11.0702   30.9491 H         1 <1>         0.0538 
     50 H20        14.1827    8.9581   32.1736 H         1 <1>         0.0498 
     51 H21        13.5474   10.2053   33.2789 H         1 <1>         0.0498 
     52 H22        13.5311   15.8782   31.3830 H         1 <1>         0.1194 
     53 H23        11.6522   14.6354   32.9394 H         1 <1>         0.0704 
     54 H24        10.3463   16.9842   34.7484 H         1 <1>         0.0347 
     55 H25        11.5200   16.8785   36.0981 H         1 <1>         0.0347 
     56 H26        10.7692   15.3885   35.4493 H         1 <1>         0.0347 
@<TRIPOS>BOND
     1    2    1 1    
     2    3    2 1    
     3    4    3 1    
     4    5    4 1    
     5    6    5 1    
     6    7    6 ar   
     7    8    7 ar   
     8    9    8 ar   
     9    9   10 ar   
    10   10   11 ar   
    11   11    6 ar   
    12   12    9 1    
    13   12   13 2    
    14   12   14 2    
    15   15   12 1    
    16   16   15 1    
    17   17   16 1    
    18   18   17 1    
    19   18   19 1    
    20   19   20 1    
    21   20   15 1    
    22   21   18 am   
    23   21   22 2    
    24   30   21 1    
    25   23   24 1    
    26   24   25 2    
    27   26   25 1    
    28   27   26 1    
    29   23   27 1    
    30   26   28 2    
    31   25   29 1    
    32   23   30 1    
    33    1   31 1    
    34    1   32 1    
    35    1   33 1    
    36    2   34 1    
    37    2   35 1    
    38    3   36 1    
    39    3   37 1    
    40    4   38 1    
    41    4   39 1    
    42    7   40 1    
    43    8   41 1    
    44   10   42 1    
    45   11   43 1    
    46   16   44 1    
    47   16   45 1    
    48   17   46 1    
    49   17   47 1    
    50   19   48 1    
    51   19   49 1    
    52   20   50 1    
    53   20   51 1    
    54   23   52 1    
    55   24   53 1    
    56   29   54 1    
    57   29   55 1    
    58   29   56 1    
@<TRIPOS>SUBSTRUCTURE
     1 ****       23 TEMP              0 ****  ****    0 ROOT 
@<TRIPOS>NORMAL
@<TRIPOS>FF_PBC
FORCE_FIELD_SETUP_FEATURE Force Field Setup information
v1.0  0 0.000000 0.000000 0.000000 0.000000 0.000000 0.000000 NONE 0 0 0 0 1 0 0 0 0 0 0 0 0
