#	Name:			PISM00167.1
#	Creating user name:	14062
#	Creation time:		Sun Mar 31 14:03:24 2019

#	Modifying user name:	14062
#	Modification time:	Sun Mar 31 14:11:09 2019

@<TRIPOS>MOLECULE
PISM00167.1
   31    33     2     1     0
SMALL
GAST_HUCK


@<TRIPOS>ATOM
      1 H1          4.0332    4.1494   -5.7577 H         2 CN          0.0518 
      2 C2          4.1552    4.1338   -8.8775 C.2       2 CN          0.2459 
      3 O3          2.9219    4.5962   -9.0969 O.3       2 CN         -0.1762 
      4 C4          1.9832    4.5163   -8.1334 C.2       2 CN          0.2406 
      5 C5          2.2590    4.0018   -6.9185 C.2       2 CN          0.1043 
      6 C6          3.6196    3.4831   -6.5312 C.3       2 CN          0.0301 
      7 C7          4.5251    3.6080   -7.7132 C.2       2 CN          0.0159 
      8 C8          5.9285    3.2137   -7.8760 C.2       2 CN         -0.0158 
      9 N9          6.2250    3.5414   -9.0675 N.2       2 CN         -0.2428 
     10 N10         5.1652    4.1009   -9.6935 N.pl3     2 CN         -0.1962 
     11 C           1.2368    3.9276   -5.9066 C.1       2 CN          0.0105 
     12 N12         0.8023    4.9691   -8.4640 N.pl3     2 CN         -0.2822 
     13 N           0.4117    3.8719   -5.0983 N.1       2 CN         -0.4172 
     14 C14         3.5369    2.0407   -6.0002 C.ar      2 CN         -0.0189 
     15 C15         3.4263    1.8400   -4.6181 C.ar      2 CN         -0.0423 
     16 C16         3.4926    0.5527   -4.0716 C.ar      2 CN          0.0667 
     17 C17         3.6745   -0.5411   -4.9196 C.ar      2 CN         -0.0524 
     18 C18         3.7138   -0.3546   -6.3034 C.ar      2 CN         -0.0524 
     19 C19         3.5839    0.9264   -6.8522 C.ar      2 CN          0.1223 
     20 O20         3.3848    0.3379   -2.6949 O.3       2 CN         -0.3436 
     21 N           3.4982    1.0628   -8.1975 N.pl3     1 NO2         0.1111 
     22 O           2.6277    1.7800   -8.6359 O.2       1 NO2        -0.1177 
     23 O           4.2635    0.4182   -8.8796 O.2       1 NO2        -0.1177 
     24 H2          6.5763    2.7421   -7.1385 H         2 CN          0.0583 
     25 H3          5.1560    4.4410  -10.6656 H         2 CN          0.2521 
     26 H4          0.6468    5.3507   -9.4092 H         2 CN          0.1933 
     27 H5          0.0116    4.9534   -7.8010 H         2 CN          0.1933 
     28 H6          3.2903    2.6933   -3.9618 H         2 CN          0.0442 
     29 H7          3.7794   -1.5357   -4.4982 H         2 CN          0.0446 
     30 H8          3.8369   -1.2161   -6.9520 H         2 CN          0.0467 
     31 H9          3.0740    1.0919   -2.2067 H         2 CN          0.2436 
@<TRIPOS>BOND
     1    6    1 1    
     2    3    2 1    
     3    4    3 1    
     4    5    4 2    
     5    5    6 1    
     6    6    7 1    
     7    7    8 1    
     8    8    9 2    
     9    9   10 1    
    10    2   10 1    
    11   11   13 3    
    12    4   12 1    
    13   11    5 1    
    14    6   14 1    
    15   14   15 ar   
    16   15   16 ar   
    17   16   17 ar   
    18   17   18 ar   
    19   18   19 ar   
    20   14   19 ar   
    21   16   20 1    
    22   21   22 2    
    23   21   23 2    
    24   19   21 1    
    25    2    7 2    
    26    8   24 1    
    27   10   25 1    
    28   12   26 1    
    29   12   27 1    
    30   15   28 1    
    31   17   29 1    
    32   18   30 1    
    33   20   31 1    
@<TRIPOS>SUBSTRUCTURE
     1 NO2        21 PERM              0 ****  ****    1  
     2 CN         11 PERM              0 ****  ****    1 ROOT 
@<TRIPOS>NORMAL
@<TRIPOS>FF_PBC
FORCE_FIELD_SETUP_FEATURE Force Field Setup information
v1.0  0 0.000000 0.000000 0.000000 0.000000 0.000000 0.000000 NONE 0 0 0 0 1 0 0 0 0 0 0 0 0
