#	Name:			PISM00753
#	Creating user name:	baoopengkun
#	Creation time:		Wed Jan 02 12:00:41 2019

#	Modifying user name:	baoopengkun
#	Modification time:	Wed Jan 02 12:04:43 2019

@<TRIPOS>MOLECULE
PISM00753
   38    40     1     1     0
SMALL
GAST_HUCK


@<TRIPOS>ATOM
      1 C1         -7.3910   -3.3199    0.4810 C.ar      1 <1>        -0.0365 
      2 C2         -8.1379   -2.3704   -0.2287 C.ar      1 <1>        -0.0521 
      3 C3         -7.5617   -1.1585   -0.6410 C.ar      1 <1>        -0.0521 
      4 C4         -6.2220   -0.8623   -0.3574 C.ar      1 <1>        -0.0365 
      5 C5         -5.4919   -1.8184    0.3479 C.ar      1 <1>         0.0769 
      6 C6         -6.0602   -3.0073    0.7558 C.ar      1 <1>         0.0769 
      7 C7         -4.9576   -3.7351    1.4785 C.2       1 <1>         0.2524 
      8 O8         -5.1578   -4.8240    1.9880 O.2       1 <1>        -0.3565 
      9 N9         -3.8624   -3.0075    1.4606 N.pl3     1 <1>        -0.1468 
     10 C10        -4.0637   -1.8725    0.8256 C.2       1 <1>         0.2524 
     11 O11        -3.3180   -0.9448    0.5731 O.2       1 <1>        -0.3565 
     12 C12        -2.7364   -3.4112    2.0252 C.2       1 <1>         0.1754 
     13 C13        -2.6429   -4.7869    2.5706 C.2       1 <1>         0.2659 
     14 O14        -2.3713   -4.9312    3.7534 O.2       1 <1>        -0.3725 
     15 O15        -2.8184   -5.8381    1.7547 O.3       1 <1>        -0.2845 
     16 C16        -2.7755   -7.1120    2.4259 C.3       1 <1>         0.0638 
     17 C17        -1.5784   -2.7440    2.2025 C.2       1 <1>         0.0964 
     18 O18        -1.4275   -1.4644    1.8422 O.3       1 <1>        -0.2797 
     19 C19        -0.1148   -0.9146    2.0606 C.3       1 <1>         0.2354 
     20 C20         0.8891   -1.5366    1.1156 C.2       1 <1>        -0.0015 
     21 C21         1.3596   -0.6258    0.2659 C.2       1 <1>         0.0292 
     22 C22         0.6721    0.5972    0.6615 C.2       1 <1>         0.2495 
     23 O23        -0.1604    0.4772    1.6874 O.3       1 <1>        -0.2310 
     24 O24         0.8546    1.6625    0.0977 O.2       1 <1>        -0.3691 
     25 C25         2.3554   -0.8119   -0.8462 C.3       1 <1>        -0.0323 
     26 H1         -7.8220   -4.2608    0.8070 H         1 <1>         0.0683 
     27 H2         -9.1783   -2.5765   -0.4625 H         1 <1>         0.0663 
     28 H3         -8.1625   -0.4381   -1.1884 H         1 <1>         0.0663 
     29 H4         -5.7632    0.0701   -0.6698 H         1 <1>         0.0683 
     30 H5         -2.9392   -7.8960    1.6722 H         1 <1>         0.0574 
     31 H6         -3.5733   -7.1854    3.1826 H         1 <1>         0.0574 
     32 H7         -1.7976   -7.2855    2.9028 H         1 <1>         0.0574 
     33 H8         -0.7402   -3.2670    2.6737 H         1 <1>         0.0970 
     34 H9          0.2036   -0.9796    3.1149 H         1 <1>         0.1204 
     35 H10         1.1883   -2.5838    1.1178 H         1 <1>         0.0706 
     36 H11         2.1958   -1.7806   -1.3430 H         1 <1>         0.0347 
     37 H12         3.3747   -0.7805   -0.4340 H         1 <1>         0.0347 
     38 H13         2.2448   -0.0087   -1.5902 H         1 <1>         0.0347 
@<TRIPOS>BOND
     1    2    1 ar   
     2    2    3 ar   
     3    3    4 ar   
     4    4    5 ar   
     5    5    6 ar   
     6    1    6 ar   
     7    6    7 1    
     8    7    8 2    
     9    7    9 1    
    10    9   10 1    
    11    5   10 1    
    12   10   11 2    
    13    9   12 1    
    14   12   13 1    
    15   13   14 2    
    16   13   15 1    
    17   15   16 1    
    18   12   17 2    
    19   17   18 1    
    20   18   19 1    
    21   19   20 1    
    22   20   21 2    
    23   21   22 1    
    24   22   23 1    
    25   19   23 1    
    26   22   24 2    
    27   21   25 1    
    28    1   26 1    
    29    2   27 1    
    30    3   28 1    
    31    4   29 1    
    32   16   30 1    
    33   16   31 1    
    34   16   32 1    
    35   17   33 1    
    36   19   34 1    
    37   20   35 1    
    38   25   36 1    
    39   25   37 1    
    40   25   38 1    
@<TRIPOS>SUBSTRUCTURE
     1 ****        2 TEMP              0 ****  ****    0 ROOT 
@<TRIPOS>NORMAL
@<TRIPOS>FF_PBC
FORCE_FIELD_SETUP_FEATURE Force Field Setup information
v1.0  0 0.000000 0.000000 0.000000 0.000000 0.000000 0.000000 NONE 0 0 0 0 1 0 0 0 0 0 0 0 0
