#	Name:			PISM00985
#	Creating user name:	baoopengkun
#	Creation time:		Fri Jan 11 21:40:28 2019

#	Modifying user name:	baoopengkun
#	Modification time:	Fri Jan 11 21:42:08 2019

@<TRIPOS>MOLECULE
PISM00985
   45    48     1     1     0
SMALL
GAST_HUCK


@<TRIPOS>ATOM
      1 C1          5.9321    4.8302  -12.7647 C.ar      1 <1>        -0.0371 
      2 C2          5.0573    5.8731  -13.0967 C.ar      1 <1>        -0.0523 
      3 C3          3.6739    5.6559  -13.1944 C.ar      1 <1>        -0.0523 
      4 C4          3.1231    4.3891  -12.9601 C.ar      1 <1>        -0.0371 
      5 C5          4.0037    3.3604  -12.6297 C.ar      1 <1>         0.0734 
      6 C6          5.3717    3.5741  -12.5368 C.ar      1 <1>         0.0734 
      7 C7          5.9676    2.2383  -12.1683 C.2       1 <1>         0.2419 
      8 O8          7.1584    2.0475  -11.9926 O.2       1 <1>        -0.3668 
      9 N9          4.9870    1.3183  -12.0634 N.am      1 <1>        -0.1726 
     10 C10         3.7971    1.9008  -12.3111 C.2       1 <1>         0.2419 
     11 O11         2.7081    1.3540  -12.2850 O.2       1 <1>        -0.3668 
     12 C12         5.1744   -0.0739  -11.6818 C.3       1 <1>         0.0901 
     13 C13         5.0512   -0.2808  -10.1655 C.ar      1 <1>        -0.0165 
     14 C14         4.9636    0.7978   -9.2764 C.ar      1 <1>        -0.0562 
     15 C15         4.9475    0.5756   -7.8969 C.ar      1 <1>        -0.0419 
     16 C16         5.0236   -0.7259   -7.3946 C.ar      1 <1>         0.1013 
     17 C17         5.0043   -1.8075   -8.2784 C.ar      1 <1>        -0.0419 
     18 C18         5.0310   -1.5849   -9.6576 C.ar      1 <1>        -0.0562 
     19 S19         5.2079   -1.0113   -5.6527 S.o2      1 <1>         0.0677 
     20 O20         4.4536   -2.1917   -5.2792 O.2       1 <1>        -0.1510 
     21 O21         5.0061    0.2312   -4.9333 O.2       1 <1>        -0.1510 
     22 N22         6.8150   -1.3541   -5.6787 N.am      1 <1>        -0.2304 
     23 C23         7.2993   -2.7234   -5.7701 C.3       1 <1>         0.0530 
     24 C24         8.2562   -2.8256   -6.9916 C.3       1 <1>         0.0647 
     25 O25         8.9332   -1.5916   -7.3135 O.3       1 <1>        -0.3766 
     26 C26         9.1509   -0.7524   -6.1669 C.3       1 <1>         0.0647 
     27 C27         7.7636   -0.2468   -5.6902 C.3       1 <1>         0.0530 
     28 H1          7.0032    4.9854  -12.6856 H         1 <1>         0.0682 
     29 H2          5.4577    6.8657  -13.2820 H         1 <1>         0.0662 
     30 H3          3.0186    6.4815  -13.4562 H         1 <1>         0.0662 
     31 H4          2.0556    4.2075  -13.0308 H         1 <1>         0.0682 
     32 H5          6.1738   -0.4195  -11.9914 H         1 <1>         0.0735 
     33 H6          4.4232   -0.6994  -12.1901 H         1 <1>         0.0735 
     34 H7          4.9124    1.8177   -9.6400 H         1 <1>         0.0558 
     35 H8          4.8822    1.4167   -7.2151 H         1 <1>         0.0619 
     36 H9          4.9747   -2.8206   -7.8919 H         1 <1>         0.0619 
     37 H10         5.0411   -2.4330  -10.3355 H         1 <1>         0.0558 
     38 H11         6.4903   -3.4654   -5.8558 H         1 <1>         0.0501 
     39 H12         7.8481   -2.9383   -4.8393 H         1 <1>         0.0501 
     40 H13         7.6930   -3.0963   -7.8984 H         1 <1>         0.0576 
     41 H14         9.0039   -3.6140   -6.8100 H         1 <1>         0.0576 
     42 H15         9.7787    0.1011   -6.4695 H         1 <1>         0.0576 
     43 H16         9.6828   -1.3011   -5.3725 H         1 <1>         0.0576 
     44 H17         7.4122    0.5174   -6.4017 H         1 <1>         0.0501 
     45 H18         7.8340    0.2063   -4.6889 H         1 <1>         0.0501 
@<TRIPOS>BOND
     1    2    1 ar   
     2    2    3 ar   
     3    3    4 ar   
     4    4    5 ar   
     5    5    6 ar   
     6    1    6 ar   
     7    6    7 1    
     8    7    8 2    
     9    7    9 am   
    10    9   10 am   
    11   10   11 2    
    12    5   10 1    
    13    9   12 1    
    14   12   13 1    
    15   13   14 ar   
    16   14   15 ar   
    17   15   16 ar   
    18   16   17 ar   
    19   17   18 ar   
    20   13   18 ar   
    21   16   19 1    
    22   19   20 2    
    23   19   21 2    
    24   19   22 1    
    25   22   23 1    
    26   23   24 1    
    27   24   25 1    
    28   25   26 1    
    29   26   27 1    
    30   22   27 1    
    31    1   28 1    
    32    2   29 1    
    33    3   30 1    
    34    4   31 1    
    35   12   32 1    
    36   12   33 1    
    37   14   34 1    
    38   15   35 1    
    39   17   36 1    
    40   18   37 1    
    41   23   38 1    
    42   23   39 1    
    43   24   40 1    
    44   24   41 1    
    45   26   42 1    
    46   26   43 1    
    47   27   44 1    
    48   27   45 1    
@<TRIPOS>SUBSTRUCTURE
     1 ****        2 TEMP              0 ****  ****    0 ROOT 
@<TRIPOS>NORMAL
@<TRIPOS>FF_PBC
FORCE_FIELD_SETUP_FEATURE Force Field Setup information
v1.0  0 0.000000 0.000000 0.000000 0.000000 0.000000 0.000000 NONE 0 0 0 0 1 0 0 0 0 0 0 0 0
