#	Name:			PISM01051
#	Creating user name:	malab
#	Creation time:		Tue Jul 02 22:45:36 2019

#	Modifying user name:	malab
#	Modification time:	Tue Jul 02 22:51:38 2019

@<TRIPOS>MOLECULE
PISM01051
   47    50     1     1     0
SMALL
GAST_HUCK


@<TRIPOS>ATOM
      1 C1         -9.2267   17.9917    1.8787 C.3       1 <1>        -0.0892 
      2 C2         -9.5519   18.2365    0.3692 C.3       1 <1>        -0.0998 
      3 C3         -8.5171   17.5914   -0.5908 C.3       1 <1>        -0.0413 
      4 C4         -7.1200   18.2209   -0.3601 C.3       1 <1>         0.0306 
      5 C5         -6.8468   18.3306    1.1149 C.2       1 <1>         0.0456 
      6 C6         -7.7476   18.2508    2.0900 C.2       1 <1>        -0.0368 
      7 C7         -9.5110   16.5150    2.2833 C.3       1 <1>        -0.1161 
      8 C8        -10.1353   18.9291    2.7260 C.3       1 <1>        -0.1161 
      9 C9         -7.1529   18.4109    3.4652 C.3       1 <1>         0.1213 
     10 C10        -5.6785   18.8148    3.1139 C.3       1 <1>         0.0779 
     11 C11        -5.4460   18.5358    1.6009 C.3       1 <1>         0.1480 
     12 O12        -7.7752   19.4803    4.2097 O.3       1 <1>        -0.2682 
     13 C13        -6.9923   20.5351    4.0736 C.2       1 <1>         0.2379 
     14 C14        -5.7137   20.2785    3.4373 C.2       1 <1>         0.0619 
     15 O15        -7.3087   21.6413    4.4759 O.2       1 <1>        -0.3778 
     16 C16        -4.7438   21.1647    3.1930 C.2       1 <1>         0.0793 
     17 O17        -3.6079   20.7492    2.6167 O.3       1 <1>        -0.2722 
     18 C18        -2.6765   21.8124    2.3585 C.3       1 <1>         0.2383 
     19 O19        -3.2831   22.7673    1.4643 O.3       1 <1>        -0.2305 
     20 C20        -2.6008   22.6672    0.3306 C.2       1 <1>         0.2495 
     21 O21        -2.8906   23.3229   -0.6549 O.2       1 <1>        -0.3691 
     22 C22        -1.4840   21.7293    0.3508 C.2       1 <1>         0.0293 
     23 C23        -1.5240   21.2245    1.5822 C.2       1 <1>        -0.0010 
     24 C24        -0.5106   21.4156   -0.7525 C.3       1 <1>        -0.0323 
     25 H1        -10.5583   17.8536    0.1341 H         1 <1>         0.0074 
     26 H2         -9.5531   19.3204    0.1668 H         1 <1>         0.0074 
     27 H3         -8.8213   17.7528   -1.6389 H         1 <1>         0.0303 
     28 H4         -8.4726   16.5044   -0.4255 H         1 <1>         0.0303 
     29 H5         -7.0876   19.2380   -0.7821 H         1 <1>         0.0682 
     30 H6         -6.3475   17.6102   -0.8547 H         1 <1>         0.0682 
     31 H7        -10.5470   16.2404    2.0330 H         1 <1>         0.0034 
     32 H8         -9.3786   16.3759    3.3667 H         1 <1>         0.0034 
     33 H9         -8.8321   15.8142    1.7770 H         1 <1>         0.0034 
     34 H10       -11.1896   18.7989    2.4371 H         1 <1>         0.0034 
     35 H11        -9.8577   19.9821    2.5633 H         1 <1>         0.0034 
     36 H12       -10.0587   18.7079    3.8007 H         1 <1>         0.0034 
     37 H13        -7.2227   17.4560    4.0090 H         1 <1>         0.0799 
     38 H14        -4.9304   18.3264    3.7584 H         1 <1>         0.0517 
     39 O39        -4.6659   17.3476    1.3796 O.3       1 <1>        -0.3576 
     40 H16        -4.9702   19.3774    1.0730 H         1 <1>         0.1041 
     41 H17        -4.9301   22.2028    3.4816 H         1 <1>         0.1070 
     42 H18        -2.3212   22.3015    3.2817 H         1 <1>         0.1210 
     43 H19        -0.8295   20.4832    1.9756 H         1 <1>         0.0706 
     44 H20        -0.5965   22.1590   -1.5592 H         1 <1>         0.0347 
     45 H21        -0.7285   20.4177   -1.1610 H         1 <1>         0.0347 
     46 H22         0.5184   21.4298   -0.3633 H         1 <1>         0.0347 
     47 H15        -5.0420   16.5675    1.7771 H         1 <1>         0.2175 
@<TRIPOS>BOND
     1    2    1 1    
     2    2    3 1    
     3    3    4 1    
     4    4    5 1    
     5    5    6 2    
     6    1    6 1    
     7    1    7 1    
     8    1    8 1    
     9    6    9 1    
    10    9   10 1    
    11   10   11 1    
    12    5   11 1    
    13    9   12 1    
    14   12   13 1    
    15   13   14 1    
    16   10   14 1    
    17   13   15 2    
    18   14   16 2    
    19   16   17 1    
    20   17   18 1    
    21   18   19 1    
    22   19   20 1    
    23   20   21 2    
    24   20   22 1    
    25   22   23 2    
    26   18   23 1    
    27   22   24 1    
    28    2   25 1    
    29    2   26 1    
    30    3   27 1    
    31    3   28 1    
    32    4   29 1    
    33    4   30 1    
    34    7   31 1    
    35    7   32 1    
    36    7   33 1    
    37    8   34 1    
    38    8   35 1    
    39    8   36 1    
    40    9   37 1    
    41   10   38 1    
    42   11   39 1    
    43   11   40 1    
    44   16   41 1    
    45   18   42 1    
    46   23   43 1    
    47   24   44 1    
    48   24   45 1    
    49   24   46 1    
    50   39   47 1    
@<TRIPOS>SUBSTRUCTURE
     1 ****        2 TEMP              0 ****  ****    0 ROOT 
@<TRIPOS>NORMAL
@<TRIPOS>FF_PBC
FORCE_FIELD_SETUP_FEATURE Force Field Setup information
v1.0  0 0.000000 0.000000 0.000000 0.000000 0.000000 0.000000 NONE 0 0 0 0 1 0 0 0 0 0 0 0 0
