#	Name:			PISM00661
#	Creating user name:	baoopengkun
#	Creation time:		Sat Jan 12 19:36:55 2019

#	Modifying user name:	baoopengkun
#	Modification time:	Sat Jan 12 19:42:37 2019

@<TRIPOS>MOLECULE
PISM00661
   26    26     1     1     0
SMALL
GAST_HUCK


@<TRIPOS>ATOM
      1 Br1        -5.5160   -7.8475    0.7528 Br        1 <1>        -0.0513 
      2 C2         -4.1839   -6.6115    0.3940 C.ar      1 <1>         0.0274 
      3 C3         -2.8487   -7.0140    0.3055 C.ar      1 <1>         0.0074 
      4 N4         -1.8827   -6.1154    0.0234 N.ar      1 <1>        -0.2775 
      5 C5         -2.1664   -4.8195   -0.2221 C.ar      1 <1>         0.1379 
      6 C6         -3.4786   -4.3525   -0.0752 C.ar      1 <1>        -0.0090 
      7 C7         -4.4995   -5.2634    0.2104 C.ar      1 <1>        -0.0434 
      8 N8         -1.1313   -4.0278   -0.5906 N.pl3     1 <1>        -0.2194 
      9 C9         -1.2543   -3.0575   -1.4584 C.2       1 <1>         0.2218 
     10 O10        -2.2997   -2.7786   -2.0210 O.2       1 <1>        -0.3717 
     11 C11        -0.0364   -2.2422   -1.8091 C.3       1 <1>         0.0828 
     12 C12         0.9244   -3.1211   -2.5649 C.2       1 <1>         0.0257 
     13 O13         2.8934   -4.3424   -2.5862 O.2       1 <1>        -0.3763 
     14 C14         2.0839   -3.7369   -1.9029 C.2       1 <1>         0.2421 
     15 C15         3.4083   -4.2574   -0.0557 C.3       1 <1>         0.0619 
     16 H2         -2.5796   -8.0526    0.4628 H         1 <1>         0.0814 
     17 H3         -3.7162   -3.2990   -0.1678 H         1 <1>         0.0630 
     18 H4         -5.5281   -4.9268    0.2904 H         1 <1>         0.0727 
     19 H5         -0.2044   -4.2399   -0.1911 H         1 <1>         0.2164 
     20 H6          0.4128   -1.8526   -0.8831 H         1 <1>         0.0757 
     21 O21         2.2196   -3.6254   -0.5732 O.3       1 <1>        -0.2896 
     22 H7         -0.3172   -1.3814   -2.4360 H         1 <1>         0.0757 
     23 H8          0.7638   -3.3218   -3.6244 H         1 <1>         0.0752 
     24 H1          3.4039   -5.3415   -0.2539 H         1 <1>         0.0570 
     25 H9          3.4296   -4.1039    1.0334 H         1 <1>         0.0570 
     26 H10         4.3187   -3.8098   -0.4868 H         1 <1>         0.0570 
@<TRIPOS>BOND
     1    2    1 1    
     2    2    3 ar   
     3    3    4 ar   
     4    4    5 ar   
     5    5    6 ar   
     6    6    7 ar   
     7    2    7 ar   
     8    5    8 1    
     9    8    9 1    
    10    9   10 2    
    11    9   11 1    
    12   11   12 1    
    13   14   13 2    
    14   12   14 1    
    15   21   15 1    
    16    3   16 1    
    17    6   17 1    
    18    7   18 1    
    19    8   19 1    
    20   11   20 1    
    21   14   21 1    
    22   11   22 1    
    23   12   23 1    
    24   15   24 1    
    25   15   25 1    
    26   15   26 1    
@<TRIPOS>SUBSTRUCTURE
     1 ****        2 TEMP              0 ****  ****    0 ROOT 
@<TRIPOS>NORMAL
@<TRIPOS>FF_PBC
FORCE_FIELD_SETUP_FEATURE Force Field Setup information
v1.0  0 0.000000 0.000000 0.000000 0.000000 0.000000 0.000000 NONE 0 0 0 0 1 0 0 0 0 0 0 0 0
