#	Name:			PISM01111
#	Creating user name:	Qinrunwen
#	Creation time:		Tue Apr 02 20:14:52 2019

#	Modifying user name:	Qinrunwen
#	Modification time:	Tue Apr 02 20:18:20 2019

@<TRIPOS>MOLECULE
PISM01111
   48    51     1     1     0
SMALL
GAST_HUCK


@<TRIPOS>ATOM
      1 C1          6.5571    6.3835    1.1978 C.ar      1 <1>        -0.0468 
      2 C2          6.2157    5.0324    1.1445 C.ar      1 <1>         0.1149 
      3 C3          6.6990    4.2259    0.1543 C.ar      1 <1>         0.1154 
      4 C4          7.5570    4.7485   -0.8051 C.ar      1 <1>        -0.0491 
      5 C5          8.0291    6.0660   -0.6276 C.ar      1 <1>        -0.0863 
      6 C6          7.6573    6.8707    0.4737 C.ar      1 <1>        -0.0580 
      7 O7          6.2522    2.9183    0.2380 O.3       1 <1>        -0.2958 
      8 C8          5.2762    3.0814    1.3243 C.3       1 <1>         0.1854 
      9 O9          5.4016    4.3607    2.0325 O.3       1 <1>        -0.2930 
     10 C10         8.3643    8.1782    0.8801 C.2       1 <1>         0.0428 
     11 C11         8.3012    8.6788    2.1404 C.2       1 <1>         0.1358 
     12 O12         8.8925    9.8339    2.5106 O.3       1 <1>        -0.2308 
     13 C13         9.6757   10.6217    1.6766 C.ar      1 <1>         0.1372 
     14 C14         9.8619   10.2476    0.3502 C.ar      1 <1>         0.0431 
     15 C15         9.1699    8.9794   -0.0912 C.2       1 <1>         0.1059 
     16 O16         9.2966    8.6680   -1.2616 O.2       1 <1>        -0.4213 
     17 C17         7.6107    8.1143    3.3662 C.3       1 <1>         0.0191 
     18 C18        10.6531   11.0515   -0.4832 C.ar      1 <1>        -0.0555 
     19 C19        11.3047   12.1903    0.0116 C.ar      1 <1>        -0.0112 
     20 C20        11.0846   12.5661    1.3402 C.ar      1 <1>         0.1246 
     21 C21        10.2725   11.7853    2.1704 C.ar      1 <1>         0.0090 
     22 O22        11.6905   13.7195    1.8383 O.3       1 <1>        -0.2164 
     23 C23        10.8474   14.7365    2.0360 C.2       1 <1>         0.2534 
     24 C24        11.4829   16.0150    2.4978 C.3       1 <1>         0.0414 
     25 C25        12.2496   13.0033   -0.8963 C.3       1 <1>        -0.0233 
     26 C26        13.5829   12.2291   -1.0821 C.3       1 <1>        -0.0485 
     27 C27        14.5345   12.9011   -2.1074 C.3       1 <1>        -0.0638 
     28 O28         9.6422   14.6455    1.8680 O.2       1 <1>        -0.3639 
     29 H1          5.9256    7.0112    1.7936 H         1 <1>         0.0426 
     30 H2          7.8337    4.1312   -1.6571 H         1 <1>         0.0493 
     31 H3          8.7013    6.4310   -1.3941 H         1 <1>         0.0422 
     32 H4          5.3257    2.2426    2.0384 H         1 <1>         0.0971 
     33 H5          4.2639    3.0528    0.8886 H         1 <1>         0.0971 
     34 H6          6.5557    8.4144    3.3771 H         1 <1>         0.0514 
     35 H7          8.0449    8.5161    4.2979 H         1 <1>         0.0514 
     36 H8          7.7123    7.0229    3.4262 H         1 <1>         0.0514 
     37 H9         10.7614   10.7871   -1.5291 H         1 <1>         0.0551 
     38 H10        10.1179   12.0928    3.2009 H         1 <1>         0.0491 
     39 H11        11.3430   16.1086    3.5827 H         1 <1>         0.0485 
     40 H12        11.0145   16.8705    1.9907 H         1 <1>         0.0485 
     41 H13        12.5587   16.0097    2.2704 H         1 <1>         0.0485 
     42 H14        12.4793   13.9949   -0.4700 H         1 <1>         0.0391 
     43 H15        11.7570   13.1617   -1.8692 H         1 <1>         0.0391 
     44 H16        13.3745   11.2007   -1.4286 H         1 <1>         0.0281 
     45 H17        14.0974   12.1606   -0.1064 H         1 <1>         0.0281 
     46 H18        14.7864   13.9294   -1.7960 H         1 <1>         0.0231 
     47 H19        14.0688   12.9392   -3.1072 H         1 <1>         0.0231 
     48 H20        15.4705   12.3216   -2.1845 H         1 <1>         0.0231 
@<TRIPOS>BOND
     1    2    1 ar   
     2    2    3 ar   
     3    3    4 ar   
     4    4    5 ar   
     5    6    5 ar   
     6    1    6 ar   
     7    3    7 1    
     8    8    7 1    
     9    9    8 1    
    10    2    9 1    
    11    6   10 1    
    12   10   11 2    
    13   11   12 1    
    14   12   13 1    
    15   14   13 ar   
    16   15   14 1    
    17   10   15 1    
    18   15   16 2    
    19   11   17 1    
    20   14   18 ar   
    21   18   19 ar   
    22   19   20 ar   
    23   20   21 ar   
    24   13   21 ar   
    25   20   22 1    
    26   22   23 1    
    27   23   24 1    
    28   19   25 1    
    29   25   26 1    
    30   26   27 1    
    31   23   28 2    
    32    1   29 1    
    33    4   30 1    
    34    5   31 1    
    35    8   32 1    
    36    8   33 1    
    37   17   34 1    
    38   17   35 1    
    39   17   36 1    
    40   18   37 1    
    41   21   38 1    
    42   24   39 1    
    43   24   40 1    
    44   24   41 1    
    45   25   42 1    
    46   25   43 1    
    47   26   44 1    
    48   26   45 1    
    49   27   46 1    
    50   27   47 1    
    51   27   48 1    
@<TRIPOS>SUBSTRUCTURE
     1 ****        2 TEMP              0 ****  ****    0 ROOT 
@<TRIPOS>NORMAL
@<TRIPOS>FF_PBC
FORCE_FIELD_SETUP_FEATURE Force Field Setup information
v1.0  0 0.000000 0.000000 0.000000 0.000000 0.000000 0.000000 NONE 0 0 0 0 1 0 0 0 0 0 0 0 0
