#	Name:			PISM00578
#	Creating user name:	malab
#	Creation time:		Thu Apr 04 22:13:29 2019

#	Modifying user name:	malab
#	Modification time:	Thu Apr 04 22:14:12 2019

@<TRIPOS>MOLECULE
PISM00578
   13    13     1     1     0
SMALL
USER_CHARGES


@<TRIPOS>ATOM
      1 N1         19.6804    8.4189   -2.5731 N.2       1 <1>         0.0000 
      2 N2         20.7300    9.2030   -2.8568 N.2       1 <1>         0.0000 
      3 C3         19.8740    7.1030   -3.1587 C.2       1 <1>         0.0000 
      4 C4         20.9720    6.7770   -3.8759 C.2       1 <1>         0.0000 
      5 S5         22.2494    8.0172   -4.1105 S.3       1 <1>         0.0000 
      6 C6         18.7406    6.1445   -2.8896 C.3       1 <1>         0.0000 
      7 C7         21.2278    5.4615   -4.5030 C.2       1 <1>         0.0000 
      8 O8         22.2935    5.2805   -5.0737 O.2       1 <1>         0.0000 
      9 O9         20.3098    4.4906   -4.4492 O.3       1 <1>         0.0000 
     10 H1         18.2528    5.8578   -3.8333 H         1 <1>         0.0000 
     11 H2         17.9846    6.6174   -2.2445 H         1 <1>         0.0000 
     12 H3         19.1114    5.2463   -2.3735 H         1 <1>         0.0000 
     13 H4         20.5740    3.6864   -4.8840 H         1 <1>         0.0000 
@<TRIPOS>BOND
     1    2    1 2    
     2    1    3 1    
     3    3    4 2    
     4    4    5 1    
     5    2    5 1    
     6    3    6 1    
     7    4    7 1    
     8    7    8 2    
     9    7    9 1    
    10    6   10 1    
    11    6   11 1    
    12    6   12 1    
    13    9   13 1    
@<TRIPOS>SUBSTRUCTURE
     1 ****        2 TEMP              0 ****  ****    0 ROOT 
@<TRIPOS>NORMAL
@<TRIPOS>FF_PBC
FORCE_FIELD_SETUP_FEATURE Force Field Setup information
v1.0  0 0.000000 0.000000 0.000000 0.000000 0.000000 0.000000 NONE 0 0 0 0 0 0 0 0 0 0 0 0 0
