#	Name:			PISM00240
#	Creating user name:	14062
#	Creation time:		Tue Jun 18 21:26:04 2019

#	Modifying user name:	14062
#	Modification time:	Tue Jun 18 21:38:48 2019

@<TRIPOS>MOLECULE
PISM00240
   19    19     1     2     0
SMALL
NO_CHARGES


@<TRIPOS>ATOM
      1 C1          3.7601    3.4137    0.2740 C.ar      1 <1>         0.0000 
      2 C2          4.7841    2.4620    0.2831 C.ar      1 <1>         0.0000 
      3 C3          4.4967    1.1244   -0.0005 C.ar      1 <1>         0.0000 
      4 C4          3.1869    0.7369   -0.2938 C.ar      1 <1>         0.0000 
      5 C5          2.1651    1.6895   -0.3085 C.ar      1 <1>         0.0000 
      6 C6          2.4504    3.0264   -0.0207 C.ar      1 <1>         0.0000 
      7 Cl7         4.1091    5.0914    0.6302 Cl        1 <1>         0.0000 
      8 O8          6.0891    2.8427    0.5739 O.3       1 <1>         0.0000 
      9 C9          0.7359    1.2705   -0.6394 C.3       1 <1>         0.0000 
     10 C10         0.5257    1.1659   -2.1245 C.2       1 <1>         0.0000 
     11 O11         1.3948    1.4318   -2.9392 O.2       1 <1>         0.0000 
     12 O12        -0.6822    0.7598   -2.5042 O.3       1 <1>         0.0000 
     13 H1          5.2907    0.3865    0.0071 H         1 <1>         0.0000 
     14 H2          2.9637   -0.3017   -0.5097 H         1 <1>         0.0000 
     15 H3          1.6555    3.7634   -0.0260 H         1 <1>         0.0000 
     16 H4          6.1163    3.7773    0.7421 H         1 <1>         0.0000 
     17 H5          0.0399    2.0181   -0.2311 H         1 <1>         0.0000 
     18 H6          0.5341    0.2918   -0.1795 H         1 <1>         0.0000 
     19 H7         -0.7207    0.7242   -3.4527 H         1 <1>         0.0000 
@<TRIPOS>BOND
     1    2    1 ar   
     2    2    3 ar   
     3    3    4 ar   
     4    4    5 ar   
     5    6    5 ar   
     6    1    6 ar   
     7    1    7 1    
     8    2    8 1    
     9    5    9 1    
    10    9   10 1    
    11   10   11 2    
    12   10   12 1    
    13    3   13 1    
    14    4   14 1    
    15    6   15 1    
    16    8   16 1    
    17    9   17 1    
    18    9   18 1    
    19   12   19 1    
@<TRIPOS>SUBSTRUCTURE
     1 ****        2 TEMP              0 ****  ****    0 ROOT 
@<TRIPOS>NORMAL
@<TRIPOS>FF_PBC
FORCE_FIELD_SETUP_FEATURE Force Field Setup information
v1.0  0 0.000000 0.000000 0.000000 0.000000 0.000000 0.000000 NONE 0 0 0 0 0 0 0 0 0 0 0 0 0
@<TRIPOS>RENDERING_ATTRS
ANTIALIASED_LINES 
*
