#	Name:			PISM00233
#	Creating user name:	14062
#	Creation time:		Sat Apr 06 01:46:22 2019

#	Modifying user name:	14062
#	Modification time:	Sat Apr 06 01:48:33 2019

@<TRIPOS>MOLECULE
PISM00233
   30    31     2     2     0
SMALL
GAST_HUCK


@<TRIPOS>ATOM
      1 C1         -5.6735    0.1294   13.3292 C.2       2 BENZYL      0.1645 
      2 C2         -4.2810    2.1447   14.9177 C.2       2 BENZYL      0.2669 
      3 C2         -7.0275   -0.0822   12.6854 C.ar      1 BENZYL      0.0348 
      4 C3         -7.8165   -1.1707   13.0742 C.ar      1 BENZYL     -0.0430 
      5 C4         -9.0569   -1.3971   12.4706 C.ar      1 BENZYL     -0.0421 
      6 C5         -9.5182   -0.5313   11.4760 C.ar      1 BENZYL      0.0452 
      7 C6         -8.7450    0.5700   11.1000 C.ar      1 BENZYL     -0.0421 
      8 C7         -7.5088    0.8004   11.7111 C.ar      1 BENZYL     -0.0430 
      9 O9         -5.2842    2.7958   15.1557 O.2       2 BENZYL     -0.3548 
     10 C2         -4.6101    0.9957   12.6923 C.ar      2 BENZYL      0.0546 
     11 C3         -3.9128    1.9286   13.4659 C.ar      2 BENZYL      0.0797 
     12 C4         -2.8828    2.6817   12.8940 C.ar      2 BENZYL     -0.0353 
     13 C5         -2.5684    2.5269   11.5412 C.ar      2 BENZYL     -0.0516 
     14 C6         -3.2932    1.6256   10.7563 C.ar      2 BENZYL     -0.0518 
     15 C7         -4.3102    0.8586   11.3326 C.ar      2 BENZYL     -0.0379 
     16 O16        -3.5682    1.6697   15.9510 O.3       2 BENZYL     -0.2803 
     17 C17        -2.4777    0.8028   15.5854 C.3       2 BENZYL      0.0647 
     18 O18        -5.4177   -0.4152   14.3905 O.2       2 BENZYL     -0.3652 
     19 Cl19      -11.0620   -0.8238   10.7021 Cl        1 BENZYL     -0.0664 
     20 H1         -7.4663   -1.8475   13.8476 H         1 BENZYL      0.0669 
     21 H2         -9.6632   -2.2449   12.7728 H         1 BENZYL      0.0635 
     22 H3         -9.1081    1.2476   10.3341 H         1 BENZYL      0.0635 
     23 H4         -6.9326    1.6746   11.4268 H         1 BENZYL      0.0669 
     24 H5         -2.3310    3.3936   13.5003 H         2 BENZYL      0.0684 
     25 H6         -1.7635    3.1075   11.0997 H         2 BENZYL      0.0665 
     26 H7         -3.0638    1.5193    9.6999 H         2 BENZYL      0.0665 
     27 H8         -4.8599    0.1496   10.7216 H         2 BENZYL      0.0682 
     28 H9         -2.0112    0.4541   16.5182 H         2 BENZYL      0.0575 
     29 H10        -1.7083    1.3270   14.9984 H         2 BENZYL      0.0575 
     30 H11        -2.8335   -0.0804   15.0309 H         2 BENZYL      0.0575 
@<TRIPOS>BOND
     1   10    1 1    
     2    3    4 ar   
     3    3    8 ar   
     4    8    7 ar   
     5    7    6 ar   
     6    6    5 ar   
     7    5    4 ar   
     8    3    1 1    
     9   11    2 1    
    10   10   11 ar   
    11   10   15 ar   
    12   15   14 ar   
    13   14   13 ar   
    14   13   12 ar   
    15   12   11 ar   
    16    2    9 2    
    17    2   16 1    
    18   16   17 1    
    19    1   18 2    
    20    6   19 1    
    21    4   20 1    
    22    5   21 1    
    23    7   22 1    
    24    8   23 1    
    25   12   24 1    
    26   13   25 1    
    27   14   26 1    
    28   15   27 1    
    29   17   28 1    
    30   17   29 1    
    31   17   30 1    
@<TRIPOS>SUBSTRUCTURE
     1 BENZYL      3 PERM              0 ****  ****    1 ROOT 
     2 BENZYL     10 PERM              0 ****  ****    1  
@<TRIPOS>NORMAL
@<TRIPOS>FF_PBC
FORCE_FIELD_SETUP_FEATURE Force Field Setup information
v1.0  0 0.000000 0.000000 0.000000 0.000000 0.000000 0.000000 NONE 0 0 0 0 1 0 0 0 0 0 0 0 0
@<TRIPOS>RENDERING_ATTRS
ANTIALIASED_LINES 
*
