#	Name:			PISM00284
#	Creating user name:	baoopengkun
#	Creation time:		Sun Mar 31 18:25:30 2019

#	Modifying user name:	baoopengkun
#	Modification time:	Sun Mar 31 18:28:37 2019

@<TRIPOS>MOLECULE
PISM00284
   55    56     1     1     0
SMALL
GAST_HUCK


@<TRIPOS>ATOM
      1 C1         -5.9402    5.3191   -4.4648 C.ar      1 <1>        -0.0795 
      2 C2         -4.6676    5.8827   -4.5995 C.ar      1 <1>        -0.0432 
      3 C3         -3.5754    5.0831   -4.9628 C.ar      1 <1>         0.1176 
      4 C4         -3.7763    3.7099   -5.1482 C.ar      1 <1>         0.1167 
      5 C5         -5.0460    3.1491   -4.9920 C.ar      1 <1>        -0.0403 
      6 C6         -6.1475    3.9523   -4.6770 C.ar      1 <1>        -0.0595 
      7 O7         -2.2879    5.6158   -5.1472 O.3       1 <1>        -0.3259 
      8 C8         -2.0108    7.0191   -5.0193 C.3       1 <1>         0.0567 
      9 O9         -2.7059    2.8813   -5.4897 O.3       1 <1>        -0.3256 
     10 C10        -1.8163    2.5993   -4.3976 C.3       1 <1>         0.0568 
     11 C11        -7.5524    3.3973   -4.5515 C.2       1 <1>        -0.0763 
     12 C12        -7.9815    2.3024   -5.1966 C.2       1 <1>        -0.0657 
     13 C13        -9.3863    1.7636   -5.0548 C.3       1 <1>         0.0326 
     14 N14       -10.1815    2.0337   -6.2810 N.3       1 <1>        -0.2603 
     15 C15       -10.4444    3.4758   -6.5370 C.3       1 <1>         0.1048 
     16 C16       -11.0728    4.1707   -5.3571 C.2       1 <1>         0.2508 
     17 O17       -12.1514    3.8108   -4.9120 O.2       1 <1>        -0.3688 
     18 O18       -10.3753    5.1903   -4.8344 O.3       1 <1>        -0.2615 
     19 H1         -6.7761    5.9563   -4.1955 H         1 <1>         0.0472 
     20 C20        -9.7776    1.2779   -7.4936 C.3       1 <1>         0.0358 
     21 C21        -9.7191   -0.2279   -7.2086 C.ar      1 <1>        -0.0324 
     22 C22        -8.5420   -0.9619   -7.3958 C.ar      1 <1>        -0.0608 
     23 C23        -8.5191   -2.3312   -7.1171 C.ar      1 <1>        -0.0349 
     24 C24        -9.6704   -2.9713   -6.6528 C.ar      1 <1>         0.1248 
     25 C25       -10.8463   -2.2420   -6.4652 C.ar      1 <1>        -0.0349 
     26 C26       -10.8699   -0.8729   -6.7433 C.ar      1 <1>        -0.0608 
     27 F27        -9.6471   -4.2755   -6.3923 F         1 <1>        -0.1893 
     28 H2         -4.5557    6.9438   -4.4161 H         1 <1>         0.0508 
     29 H3         -5.1492    2.0769   -5.1106 H         1 <1>         0.0473 
     30 H4         -2.2105    7.3721   -3.9957 H         1 <1>         0.0573 
     31 H5         -2.5939    7.6057   -5.7459 H         1 <1>         0.0573 
     32 H6         -0.9420    7.1658   -5.2335 H         1 <1>         0.0573 
     33 H7         -1.0242    1.9312   -4.7648 H         1 <1>         0.0573 
     34 H8         -2.3563    2.0939   -3.5812 H         1 <1>         0.0573 
     35 H9         -1.3485    3.5170   -4.0102 H         1 <1>         0.0573 
     36 H10        -8.2402    3.9397   -3.9022 H         1 <1>         0.0412 
     37 H11        -7.3195    1.7584   -5.8686 H         1 <1>         0.0691 
     38 H12        -9.8946    2.2016   -4.1820 H         1 <1>         0.0619 
     39 H13        -9.3263    0.6839   -4.8488 H         1 <1>         0.0619 
     40 H14       -11.1591    3.5883   -7.3661 H         1 <1>         0.0688 
     41 H15        -9.5117    3.9912   -6.8132 H         1 <1>         0.0688 
     42 C42       -10.9800    5.7524   -3.6517 C.3       1 <1>         0.1053 
     43 H16        -8.8188    1.6536   -7.8841 H         1 <1>         0.0585 
     44 H17       -10.5333    1.4031   -8.2851 H         1 <1>         0.0585 
     45 H18        -7.6411   -0.4751   -7.7556 H         1 <1>         0.0548 
     46 H19        -7.6082   -2.9027   -7.2592 H         1 <1>         0.0587 
     47 H20       -11.7379   -2.7424   -6.1039 H         1 <1>         0.0587 
     48 H21       -11.7847   -0.3076   -6.5953 H         1 <1>         0.0548 
     49 C49       -10.1054    6.8753   -3.1569 C.2       1 <1>        -0.0591 
     50 H22       -11.0422    4.9900   -2.8579 H         1 <1>         0.0795 
     51 H23       -11.9940    6.1311   -3.8680 H         1 <1>         0.0795 
     52 H24        -9.0477    6.8570   -3.4228 H         1 <1>         0.0698 
     53 H25        -9.9106    8.6771   -2.0698 H         1 <1>         0.0291 
     54 C54       -10.5742    7.8799   -2.4063 C.2       1 <1>        -0.1150 
     55 H26       -11.6224    7.9262   -2.1117 H         1 <1>         0.0291 
@<TRIPOS>BOND
     1    2    1 ar   
     2    2    3 ar   
     3    3    4 ar   
     4    4    5 ar   
     5    5    6 ar   
     6    1    6 ar   
     7    3    7 1    
     8    7    8 1    
     9    4    9 1    
    10    9   10 1    
    11    6   11 1    
    12   11   12 2    
    13   12   13 1    
    14   13   14 1    
    15   14   15 1    
    16   15   16 1    
    17   16   17 2    
    18   16   18 1    
    19    1   19 1    
    20   14   20 1    
    21   20   21 1    
    22   21   22 ar   
    23   22   23 ar   
    24   23   24 ar   
    25   24   25 ar   
    26   25   26 ar   
    27   21   26 ar   
    28   24   27 1    
    29    2   28 1    
    30    5   29 1    
    31    8   30 1    
    32    8   31 1    
    33    8   32 1    
    34   10   33 1    
    35   10   34 1    
    36   10   35 1    
    37   11   36 1    
    38   12   37 1    
    39   13   38 1    
    40   13   39 1    
    41   15   40 1    
    42   15   41 1    
    43   18   42 1    
    44   20   43 1    
    45   20   44 1    
    46   22   45 1    
    47   23   46 1    
    48   25   47 1    
    49   26   48 1    
    50   42   49 1    
    51   42   50 1    
    52   42   51 1    
    53   49   52 1    
    54   54   53 1    
    55   49   54 2    
    56   54   55 1    
@<TRIPOS>SUBSTRUCTURE
     1 ****        2 TEMP              0 ****  ****    0 ROOT 
@<TRIPOS>NORMAL
@<TRIPOS>FF_PBC
FORCE_FIELD_SETUP_FEATURE Force Field Setup information
v1.0  0 0.000000 0.000000 0.000000 0.000000 0.000000 0.000000 NONE 0 0 0 0 1 0 0 0 0 0 0 0 0
