#	Name:			PISM01122
#	Creating user name:	14062
#	Creation time:		Sat Apr 06 23:02:27 2019

#	Modifying user name:	14062
#	Modification time:	Sat Apr 06 23:05:41 2019

@<TRIPOS>MOLECULE
PISM01122
   33    34     4     1     0
SMALL
GAST_HUCK


@<TRIPOS>ATOM
      1 N1        -24.9302   12.2474   -9.9621 N.pl3     2 BENZYL     -0.2232 
      2 N         -27.6538   11.6741   -9.7958 N.pl3     3 NO2         0.1265 
      3 C2        -24.9705   11.4727   -8.8509 C.ar      1 BENZYL      0.1888 
      4 N4        -24.4340   10.2398   -8.9570 N.ar      1 BENZYL     -0.2376 
      5 C4        -24.5271    9.3331   -7.9627 C.ar      1 BENZYL      0.0330 
      6 C5        -25.1515    9.6649   -6.7569 C.ar      1 BENZYL      0.0569 
      7 C6        -25.6458   10.9627   -6.5931 C.ar      1 BENZYL     -0.0111 
      8 C8        -25.5252   11.8892   -7.6322 C.ar      1 BENZYL      0.1205 
      9 O         -27.0904   10.7556  -10.3476 O.2       3 NO2        -0.1138 
     10 C2        -25.8577   13.2015  -10.2322 C.ar      2 BENZYL      0.1729 
     11 C3        -27.2241   12.9321  -10.0624 C.ar      2 BENZYL      0.1872 
     12 C4        -28.1514   13.9727  -10.1763 C.ar      2 BENZYL     -0.0259 
     13 C5        -27.7353   15.2641  -10.5149 C.ar      2 BENZYL      0.0149 
     14 C6        -26.3820   15.5063  -10.7745 C.ar      2 BENZYL      0.0768 
     15 C7        -25.4472   14.4660  -10.6814 C.ar      2 BENZYL      0.2017 
     16 O         -28.5906   11.5456   -9.0398 O.2       3 NO2        -0.1138 
     17 N         -24.1481   14.6725  -11.0145 N.pl3     4 NO2         0.1271 
     18 O         -23.3011   14.0928  -10.3713 O.2       4 NO2        -0.1136 
     19 O         -23.9080   15.3834  -11.9638 O.2       4 NO2        -0.1136 
     20 Cl20      -25.8656   17.1296  -11.2000 Cl        2 BENZYL     -0.0693 
     21 C21       -28.7422   16.4166  -10.6066 C.3       2 BENZYL      0.3458 
     22 F22       -28.3846   17.3906   -9.7289 F         2 BENZYL     -0.2441 
     23 F23       -30.0042   16.0059  -10.3109 F         2 BENZYL     -0.2441 
     24 F24       -28.7306   16.9174  -11.8700 F         2 BENZYL     -0.2441 
     25 Cl25      -26.0552   13.5408   -7.3675 Cl        1 BENZYL     -0.0600 
     26 C26       -25.2724    8.6087   -5.6554 C.3       1 BENZYL      0.3669 
     27 F27       -26.1268    9.0133   -4.6773 F         1 BENZYL     -0.2326 
     28 F28       -25.7323    7.4474   -6.1925 F         1 BENZYL     -0.2326 
     29 F29       -24.0434    8.3954   -5.1160 F         1 BENZYL     -0.2326 
     30 H1        -24.1551   12.0929  -10.6283 H         2 BENZYL      0.2377 
     31 H2        -24.1118    8.3406   -8.1072 H         1 BENZYL      0.1052 
     32 H3        -26.1189   11.2599   -5.6629 H         1 BENZYL      0.0904 
     33 H4        -29.2035   13.7695  -10.0057 H         2 BENZYL      0.0597 
@<TRIPOS>BOND
     1   10    1 1    
     2    3    4 ar   
     3    3    8 ar   
     4    8    7 ar   
     5    7    6 ar   
     6    6    5 ar   
     7    5    4 ar   
     8    3    1 1    
     9    2    9 2    
    10   10   11 ar   
    11   10   15 ar   
    12   15   14 ar   
    13   14   13 ar   
    14   13   12 ar   
    15   12   11 ar   
    16    2   16 2    
    17   11    2 1    
    18   17   18 2    
    19   17   19 2    
    20   15   17 1    
    21   14   20 1    
    22   13   21 1    
    23   21   22 1    
    24   21   23 1    
    25   21   24 1    
    26    8   25 1    
    27    6   26 1    
    28   26   27 1    
    29   26   28 1    
    30   26   29 1    
    31    1   30 1    
    32    5   31 1    
    33    7   32 1    
    34   12   33 1    
@<TRIPOS>SUBSTRUCTURE
     1 BENZYL      3 PERM              0 ****  ****    1 ROOT 
     2 BENZYL     10 PERM              0 ****  ****    3  
     3 NO2         2 PERM              0 ****  ****    1  
     4 NO2        17 PERM              0 ****  ****    1  
@<TRIPOS>NORMAL
@<TRIPOS>FF_PBC
FORCE_FIELD_SETUP_FEATURE Force Field Setup information
v1.0  0 0.000000 0.000000 0.000000 0.000000 0.000000 0.000000 NONE 0 0 0 0 1 0 0 0 0 0 0 0 0
