#	Name:			PISM00924
#	Creating user name:	baoopengkun
#	Creation time:		Wed Dec 12 10:55:04 2018

#	Modifying user name:	baoopengkun
#	Modification time:	Wed Dec 12 10:58:12 2018

@<TRIPOS>MOLECULE
PISM00924
   41    42     1     1     0
SMALL
GAST_HUCK


@<TRIPOS>ATOM
      1 C1         -1.0726    0.8368   -2.2393 C.ar      1 <1>        -0.0475 
      2 C2         -0.9740    0.5554   -3.6087 C.ar      1 <1>         0.1125 
      3 C3         -1.3986   -0.6896   -4.0902 C.ar      1 <1>         0.1136 
      4 C4         -1.9277   -1.6342   -3.1998 C.ar      1 <1>        -0.0375 
      5 C5         -2.0360   -1.3508   -1.8344 C.ar      1 <1>        -0.0439 
      6 C6         -1.5969   -0.1120   -1.3577 C.ar      1 <1>        -0.0777 
      7 O7         -0.4576    1.4909   -4.5212 O.3       1 <1>        -0.3292 
      8 C8          0.0262    2.7813   -4.1153 C.3       1 <1>         0.0554 
      9 O9         -1.2793   -0.9553   -5.4650 O.3       1 <1>        -0.3265 
     10 C10        -1.5615   -2.2461   -6.0292 C.3       1 <1>         0.0568 
     11 C11        -2.6314   -2.4017   -0.8833 C.3       1 <1>         0.0650 
     12 C12        -1.6677   -3.5431   -0.6569 C.2       1 <1>         0.2128 
     13 O13        -0.6904   -3.6347   -1.3824 O.2       1 <1>        -0.3940 
     14 N14        -1.8507   -4.4774    0.3153 N.am      1 <1>        -0.1382 
     15 C15        -3.0056   -4.4230    1.2105 C.3       1 <1>         0.0948 
     16 C16        -3.1811   -5.7619    1.9426 C.ar      1 <1>        -0.0219 
     17 C17        -3.0877   -5.8517    3.3370 C.ar      1 <1>        -0.0600 
     18 C18        -3.2579   -7.0836    3.9760 C.ar      1 <1>        -0.0348 
     19 C19        -3.5195   -8.2322    3.2256 C.ar      1 <1>         0.1248 
     20 C20        -3.6087   -8.1493    1.8342 C.ar      1 <1>        -0.0348 
     21 C21        -3.4380   -6.9174    1.1958 C.ar      1 <1>        -0.0600 
     22 F22        -3.6838   -9.4035    3.8355 F         1 <1>        -0.1893 
     23 O23        -0.9536   -5.4457    0.5040 O.3       1 <1>        -0.2671 
     24 H1         -0.7482    1.7863   -1.8317 H         1 <1>         0.0493 
     25 H2         -2.2618   -2.6038   -3.5461 H         1 <1>         0.0454 
     26 H3         -1.6580    0.1221   -0.2994 H         1 <1>         0.0440 
     27 H4          0.8726    2.6850   -3.4180 H         1 <1>         0.0570 
     28 H5         -0.7773    3.3804   -3.6601 H         1 <1>         0.0570 
     29 H6          0.3782    3.3037   -5.0169 H         1 <1>         0.0570 
     30 H7         -1.3394   -2.1949   -7.1052 H         1 <1>         0.0573 
     31 H8         -2.6235   -2.5095   -5.9096 H         1 <1>         0.0573 
     32 H9         -0.9228   -3.0214   -5.5784 H         1 <1>         0.0573 
     33 H10        -3.5528   -2.7959   -1.3363 H         1 <1>         0.0636 
     34 H11        -2.8892   -1.9284    0.0745 H         1 <1>         0.0636 
     35 H12        -3.9407   -4.2510    0.6562 H         1 <1>         0.0707 
     36 H13        -2.8657   -3.6048    1.9331 H         1 <1>         0.0707 
     37 H14        -2.8818   -4.9687    3.9336 H         1 <1>         0.0548 
     38 H15        -3.1876   -7.1547    5.0565 H         1 <1>         0.0587 
     39 H16        -3.8099   -9.0442    1.2549 H         1 <1>         0.0587 
     40 H17        -3.5032   -6.8596    0.1136 H         1 <1>         0.0548 
     41 H18        -0.2652   -5.4559   -0.1575 H         1 <1>         0.2495 
@<TRIPOS>BOND
     1    2    1 ar   
     2    2    3 ar   
     3    3    4 ar   
     4    4    5 ar   
     5    5    6 ar   
     6    1    6 ar   
     7    2    7 1    
     8    7    8 1    
     9    3    9 1    
    10    9   10 1    
    11    5   11 1    
    12   11   12 1    
    13   12   13 2    
    14   12   14 am   
    15   14   15 1    
    16   15   16 1    
    17   16   17 ar   
    18   17   18 ar   
    19   18   19 ar   
    20   19   20 ar   
    21   20   21 ar   
    22   16   21 ar   
    23   19   22 1    
    24   14   23 1    
    25    1   24 1    
    26    4   25 1    
    27    6   26 1    
    28    8   27 1    
    29    8   28 1    
    30    8   29 1    
    31   10   30 1    
    32   10   31 1    
    33   10   32 1    
    34   11   33 1    
    35   11   34 1    
    36   15   35 1    
    37   15   36 1    
    38   17   37 1    
    39   18   38 1    
    40   20   39 1    
    41   21   40 1    
    42   23   41 1    
@<TRIPOS>SUBSTRUCTURE
     1 ****        2 TEMP              0 ****  ****    0 ROOT 
@<TRIPOS>NORMAL
@<TRIPOS>FF_PBC
FORCE_FIELD_SETUP_FEATURE Force Field Setup information
v1.0  0 0.000000 0.000000 0.000000 0.000000 0.000000 0.000000 NONE 0 0 0 0 1 0 0 0 0 0 0 0 0
