#	Name:			PISM00685
#	Creating user name:	baoopengkun
#	Creation time:		Sat Dec 08 17:23:33 2018

#	Modifying user name:	baoopengkun
#	Modification time:	Sat Dec 08 17:23:48 2018

@<TRIPOS>MOLECULE
PISM00685
   40    42     3     2     0
SMALL
GAST_HUCK


@<TRIPOS>ATOM
      1 C1         24.0321   30.7348   -9.8339 C.3       1 PHENYL      0.0617 
      2 C          23.4802   31.2271  -11.1853 C.ar      1 PHENYL     -0.0623 
      3 C          22.1557   31.6564  -11.3378 C.ar      1 PHENYL     -0.0560 
      4 C          21.6852   32.0822  -12.5835 C.ar      1 PHENYL     -0.0447 
      5 C          22.5425   32.1052  -13.6865 C.ar      1 PHENYL     -0.0448 
      6 C          23.8710   31.6985  -13.5393 C.ar      1 PHENYL     -0.0447 
      7 C          24.3337   31.2614  -12.2950 C.ar      1 PHENYL     -0.0560 
      8 C          24.4741   29.2556   -9.8348 C.ar      2 PHENYL     -0.0623 
      9 C          25.0988   28.7487   -8.6889 C.ar      2 PHENYL     -0.0560 
     10 C          25.5720   27.4341   -8.6533 C.ar      2 PHENYL     -0.0447 
     11 C          25.4042   26.6035   -9.7641 C.ar      2 PHENYL     -0.0448 
     12 C          24.7441   27.0870  -10.8969 C.ar      2 PHENYL     -0.0447 
     13 C          24.2629   28.3995  -10.9234 C.ar      2 PHENYL     -0.0560 
     14 C          25.1783   31.7072   -9.4948 C.ar      3 PHENYL     -0.0256 
     15 C          24.8744   33.0190   -9.1076 C.ar      3 PHENYL      0.1070 
     16 C          25.8804   33.8622   -8.6264 C.ar      3 PHENYL     -0.0114 
     17 C          27.2129   33.4432   -8.6293 C.ar      3 PHENYL     -0.0513 
     18 C          27.5356   32.1772   -9.1229 C.ar      3 PHENYL     -0.0536 
     19 C          26.5239   31.3214   -9.5679 C.ar      3 PHENYL     -0.0611 
     20 O20        23.0832   30.8269   -8.7561 O.3       1 PHENYL     -0.4562 
     21 O21        23.5653   33.4954   -9.2075 O.3       3 PHENYL     -0.3042 
     22 C22        23.3582   34.4558  -10.2561 C.3       3 PHENYL      0.0662 
     23 H1         21.4780   31.6735  -10.4922 H         1 PHENYL      0.0751 
     24 H2         20.6519   32.3974  -12.6936 H         1 PHENYL      0.0666 
     25 H3         22.1785   32.4382  -14.6539 H         1 PHENYL      0.0762 
     26 H4         24.5433   31.7213  -14.3916 H         1 PHENYL      0.0666 
     27 H5         25.3666   30.9445  -12.1940 H         1 PHENYL      0.0751 
     28 H6         25.2171   29.3840   -7.8165 H         2 PHENYL      0.0751 
     29 H7         26.0691   27.0590   -7.7638 H         2 PHENYL      0.0666 
     30 H8         25.7830   25.5861   -9.7465 H         2 PHENYL      0.0762 
     31 H9         24.6030   26.4402  -11.7578 H         2 PHENYL      0.0666 
     32 H10        23.7190   28.7348  -11.7987 H         2 PHENYL      0.0751 
     33 H11        25.6230   34.8460   -8.2494 H         3 PHENYL      0.0598 
     34 H12        27.9928   34.0982   -8.2530 H         3 PHENYL      0.0746 
     35 H13        28.5729   31.8581   -9.1599 H         3 PHENYL      0.0589 
     36 H14        26.8035   30.3554   -9.9737 H         3 PHENYL      0.0722 
     37 H15        22.3592   30.2166   -8.8471 H         1 PHENYL      0.1832 
     38 H16        22.2857   34.6966  -10.2899 H         3 PHENYL      0.0592 
     39 H17        23.6587   34.0476  -11.2336 H         3 PHENYL      0.0592 
     40 H18        23.9206   35.3822  -10.0659 H         3 PHENYL      0.0592 
@<TRIPOS>BOND
     1    2    3 ar   
     2    2    7 ar   
     3    7    6 ar   
     4    6    5 ar   
     5    5    4 ar   
     6    4    3 ar   
     7    2    1 1    
     8    8    9 ar   
     9    8   13 ar   
    10   13   12 ar   
    11   12   11 ar   
    12   11   10 ar   
    13   10    9 ar   
    14    1    8 1    
    15   14   15 ar   
    16   14   19 ar   
    17   19   18 ar   
    18   18   17 ar   
    19   17   16 ar   
    20   16   15 ar   
    21    1   14 1    
    22    1   20 1    
    23   15   21 1    
    24   21   22 1    
    25    3   23 1    
    26    4   24 1    
    27    5   25 1    
    28    6   26 1    
    29    7   27 1    
    30    9   28 1    
    31   10   29 1    
    32   11   30 1    
    33   12   31 1    
    34   13   32 1    
    35   16   33 1    
    36   17   34 1    
    37   18   35 1    
    38   19   36 1    
    39   20   37 1    
    40   22   38 1    
    41   22   39 1    
    42   22   40 1    
@<TRIPOS>SUBSTRUCTURE
     1 PHENYL      2 PERM              0 ****  ****    2 ROOT 
     2 PHENYL      8 PERM              0 ****  ****    1  
     3 PHENYL     14 PERM              0 ****  ****    1  
@<TRIPOS>NORMAL
@<TRIPOS>FF_PBC
FORCE_FIELD_SETUP_FEATURE Force Field Setup information
v1.0  0 0.000000 0.000000 0.000000 0.000000 0.000000 0.000000 NONE 0 0 0 0 1 0 0 0 0 0 0 0 0
@<TRIPOS>RENDERING_ATTRS
ANTIALIASED_LINES 
*
