#	Name:			PISM00961.1
#	Creating user name:	baoopengkun
#	Creation time:		Thu Dec 13 10:35:31 2018

#	Modifying user name:	baoopengkun
#	Modification time:	Thu Dec 13 10:55:54 2018

@<TRIPOS>MOLECULE
PISM00961.1
   44    46     1     1     0
SMALL
GAST_HUCK


@<TRIPOS>ATOM
      1 C1         -7.2640   10.3926   -8.1094 C.ar      1 <1>        -0.0287 
      2 C2         -6.6377   11.6257   -7.9047 C.ar      1 <1>        -0.0144 
      3 C3         -7.2129   12.5355   -7.0119 C.ar      1 <1>        -0.0287 
      4 C4         -8.4008   12.2193   -6.3459 C.ar      1 <1>        -0.0427 
      5 C5         -9.0617   11.0080   -6.5872 C.ar      1 <1>        -0.0285 
      6 C6         -8.4525   10.0808   -7.4429 C.ar      1 <1>        -0.0427 
      7 C7        -10.4215   10.7061   -5.9147 C.3       1 <1>         0.0800 
      8 O8        -10.9975   11.9033   -5.3578 O.3       1 <1>        -0.4258 
      9 C9        -11.4559   10.0585   -6.8881 C.3       1 <1>        -0.0393 
     10 C10       -10.1447    9.7583   -4.7147 C.3       1 <1>         0.0787 
     11 N11       -11.3666    9.3616   -4.0275 N.pl3     1 <1>        -0.1847 
     12 N12       -11.9537   10.0055   -2.9797 N.2       1 <1>        -0.1910 
     13 C13       -12.9997    9.4094   -2.5421 C.2       1 <1>         0.0618 
     14 N14       -13.0441    8.2688   -3.4146 N.2       1 <1>        -0.2870 
     15 C15       -12.0878    8.3002   -4.2265 C.2       1 <1>         0.1268 
     16 C16       -11.6323   10.8173   -8.2324 C.3       1 <1>        -0.0247 
     17 C17       -12.5632   10.0079   -9.1467 C.ar      1 <1>        -0.0435 
     18 C18       -12.0334    9.0804  -10.0513 C.ar      1 <1>        -0.0597 
     19 C19       -12.8797    8.3540  -10.8941 C.ar      1 <1>        -0.0546 
     20 C20       -14.2622    8.5463  -10.8322 C.ar      1 <1>         0.0330 
     21 C21       -14.7967    9.4628   -9.9231 C.ar      1 <1>        -0.0546 
     22 C22       -13.9495   10.1887   -9.0808 C.ar      1 <1>        -0.0597 
     23 Cl23      -15.3227    7.6398  -11.8917 Cl        1 <1>        -0.0771 
     24 C24        -5.3404   11.9638   -8.6502 C.3       1 <1>        -0.0157 
     25 H1         -6.8266    9.6695   -8.7910 H         1 <1>         0.0652 
     26 H2         -6.7391   13.4951   -6.8302 H         1 <1>         0.0652 
     27 H3         -8.7999   12.9320   -5.6318 H         1 <1>         0.0834 
     28 H4         -8.8910    9.1029   -7.6027 H         1 <1>         0.0834 
     29 H5        -11.2160   12.5641   -6.0044 H         1 <1>         0.1944 
     30 H6        -12.4362   10.0254   -6.3857 H         1 <1>         0.0207 
     31 H7        -11.1698    9.0193   -7.1098 H         1 <1>         0.0207 
     32 H8         -9.5076   10.2866   -3.9887 H         1 <1>         0.0559 
     33 H9         -9.6056    8.8582   -5.0486 H         1 <1>         0.0559 
     34 H10       -13.6681    9.6913   -1.7300 H         1 <1>         0.0863 
     35 H11       -11.9078    7.5341   -4.9794 H         1 <1>         0.1361 
     36 H12       -10.6661   10.9592   -8.7389 H         1 <1>         0.0419 
     37 H13       -12.0687   11.8148   -8.0738 H         1 <1>         0.0419 
     38 H14       -10.9614    8.9182  -10.1025 H         1 <1>         0.0557 
     39 H15       -12.4652    7.6394  -11.5979 H         1 <1>         0.0606 
     40 H16       -15.8708    9.6091   -9.8726 H         1 <1>         0.0606 
     41 H17       -14.3744   10.8932   -8.3727 H         1 <1>         0.0557 
     42 H18        -4.6979   11.0732   -8.7231 H         1 <1>         0.0464 
     43 H19        -4.7753   12.7549   -8.1347 H         1 <1>         0.0464 
     44 H20        -5.5926   12.3082   -9.6642 H         1 <1>         0.0464 
@<TRIPOS>BOND
     1    2    1 ar   
     2    2    3 ar   
     3    3    4 ar   
     4    4    5 ar   
     5    5    6 ar   
     6    1    6 ar   
     7    5    7 1    
     8    7    8 1    
     9    7    9 1    
    10    7   10 1    
    11   10   11 1    
    12   11   12 1    
    13   12   13 2    
    14   13   14 1    
    15   14   15 2    
    16   11   15 1    
    17    9   16 1    
    18   16   17 1    
    19   17   18 ar   
    20   18   19 ar   
    21   19   20 ar   
    22   20   21 ar   
    23   21   22 ar   
    24   17   22 ar   
    25   20   23 1    
    26    2   24 1    
    27    1   25 1    
    28    3   26 1    
    29    4   27 1    
    30    6   28 1    
    31    8   29 1    
    32    9   30 1    
    33    9   31 1    
    34   10   32 1    
    35   10   33 1    
    36   13   34 1    
    37   15   35 1    
    38   16   36 1    
    39   16   37 1    
    40   18   38 1    
    41   19   39 1    
    42   21   40 1    
    43   22   41 1    
    44   24   42 1    
    45   24   43 1    
    46   24   44 1    
@<TRIPOS>SUBSTRUCTURE
     1 ****        2 TEMP              0 ****  ****    0 ROOT 
@<TRIPOS>NORMAL
@<TRIPOS>FF_PBC
FORCE_FIELD_SETUP_FEATURE Force Field Setup information
v1.0  0 0.000000 0.000000 0.000000 0.000000 0.000000 0.000000 NONE 0 0 0 0 1 0 0 0 0 0 0 0 0
