#	Name:			PISM00119
#	Creating user name:	baoopengkun
#	Creation time:		Mon Dec 17 14:26:46 2018

#	Modifying user name:	baoopengkun
#	Modification time:	Mon Dec 17 14:32:31 2018

@<TRIPOS>MOLECULE
PISM00119
  102   103     1     1     0
SMALL
GAST_HUCK


@<TRIPOS>ATOM
      1 C1         19.2261   10.4069    9.8266 C.3       1 <1>         0.0006 
      2 C2         19.8639   10.7215   11.2215 C.3       1 <1>         0.0695 
      3 C3         20.3458    9.4761   12.0556 C.3       1 <1>        -0.0037 
      4 C4         21.9000    9.3863   12.2316 C.3       1 <1>        -0.0119 
      5 C5         22.6523    8.8575   11.0217 C.2       1 <1>        -0.0650 
      6 C6         23.4742    9.8640   10.2487 C.3       1 <1>        -0.0286 
      7 C7         20.2606    9.7500    8.9438 C.2       1 <1>        -0.0867 
      8 C8         20.8154   10.2614    7.8325 C.2       1 <1>        -0.0700 
      9 C9         20.3816   11.5644    7.2036 C.3       1 <1>        -0.0432 
     10 C10        21.9309    9.4823    7.2578 C.2       1 <1>        -0.0329 
     11 C11        23.0847   10.0413    6.8658 C.2       1 <1>         0.1705 
     12 O12        23.1929   11.3898    6.8833 O.3       1 <1>        -0.3125 
     13 C13        24.4461   11.9775    6.4897 C.3       1 <1>         0.0606 
     14 C14        24.2056    9.1281    6.5099 C.2       1 <1>         0.2902 
     15 O15        25.2195    9.5182    5.9556 O.2       1 <1>        -0.3565 
     16 O16        24.0984    7.8448    6.8759 O.3       1 <1>        -0.2684 
     17 C17        25.3092    7.0607    6.8901 C.3       1 <1>         0.1243 
     18 C18        22.5668    7.5576   10.6914 C.2       1 <1>        -0.0939 
     19 C19        23.2133    6.8378    9.5736 C.2       1 <1>        -0.1039 
     20 C20        24.5170    6.8447    9.2577 C.2       1 <1>        -0.0700 
     21 C21        25.0718    6.0741    8.0718 C.3       1 <1>         0.1076 
     22 O22        18.9314   11.5033   11.9985 O.3       1 <1>        -0.3890 
     23 C23        19.6703    9.4556   13.4596 C.3       1 <1>        -0.0576 
     24 C24        17.9291    9.5565    9.9075 C.3       1 <1>        -0.0527 
     25 O25        26.3240    5.4346    8.4038 O.3       1 <1>        -0.3668 
     26 C26        26.2107    4.4423    9.4433 C.3       1 <1>         0.0395 
     27 C27        25.5571    6.3087    5.5366 C.3       1 <1>         0.0174 
     28 C28        26.5315    7.0801    4.5803 C.3       1 <1>         0.0682 
     29 C29        26.8963    6.3164    3.2542 C.3       1 <1>         0.0365 
     30 C30        26.1571    6.9123    1.9987 C.3       1 <1>         0.1748 
     31 C31        24.1970    5.9396    4.8734 C.3       1 <1>        -0.0571 
     32 C32        28.4414    6.2395    3.0437 C.3       1 <1>        -0.0551 
     33 C33        26.0460    5.8768    0.8503 C.3       1 <1>         0.0280 
     34 C34        25.3212    6.5148   -0.3536 C.3       1 <1>         0.0650 
     35 C35        23.9120    7.0527    0.0349 C.3       1 <1>         0.0090 
     36 C36        24.0330    7.9393    1.3199 C.3       1 <1>         0.0692 
     37 O37        24.8056    7.2596    2.3457 O.3       1 <1>        -0.3445 
     38 O38        26.7766    8.1350    1.5646 O.3       1 <1>        -0.3641 
     39 C39        23.3738    7.7957   -1.2304 C.3       1 <1>        -0.0577 
     40 O40        25.2564    5.5621   -1.4316 O.3       1 <1>        -0.3913 
     41 C41        22.7088    8.2881    2.0838 C.3       1 <1>        -0.0199 
     42 C42        21.5029    8.7671    1.2315 C.3       1 <1>        -0.0603 
     43 C43        23.0039    9.3814    3.1550 C.3       1 <1>        -0.0603 
     44 O44        27.7034    7.4535    5.3347 O.3       1 <1>        -0.3910 
     45 H45        26.1812    7.6498    7.2214 H         1 <1>         0.0700 
     46 H1         18.9297   11.3772    9.3989 H         1 <1>         0.0460 
     47 H2         20.7365   11.3729   11.0413 H         1 <1>         0.0623 
     48 H3         20.0212    8.5400   11.5801 H         1 <1>         0.0353 
     49 H4         22.1320    8.6769   13.0424 H         1 <1>         0.0470 
     50 H5         22.2973   10.3590   12.5618 H         1 <1>         0.0470 
     51 H6         24.2787   10.2472   10.8934 H         1 <1>         0.0432 
     52 H7         22.8452   10.7074    9.9314 H         1 <1>         0.0432 
     53 H8         23.9338    9.4370    9.3500 H         1 <1>         0.0432 
     54 H9         20.5948    8.7701    9.2796 H         1 <1>         0.0461 
     55 H10        20.8259   11.6889    6.2049 H         1 <1>         0.0348 
     56 H11        20.6931   12.4082    7.8374 H         1 <1>         0.0348 
     57 H12        19.2895   11.5841    7.0724 H         1 <1>         0.0348 
     58 H13        21.7939    8.4011    7.2175 H         1 <1>         0.0466 
     59 H14        25.2778   11.6517    7.1343 H         1 <1>         0.0582 
     60 H15        24.3350   13.0647    6.6130 H         1 <1>         0.0582 
     61 H16        24.6735   11.7869    5.4291 H         1 <1>         0.0582 
     62 H17        21.9296    6.9170   11.3020 H         1 <1>         0.0249 
     63 H18        22.5288    6.2406    8.9705 H         1 <1>         0.0373 
     64 H19        25.2163    7.4240    9.8602 H         1 <1>         0.0496 
     65 H20        24.3484    5.3076    7.7560 H         1 <1>         0.0767 
     66 H21        18.6630   12.3225   11.5938 H         1 <1>         0.2101 
     67 H22        18.5729    9.4586   13.3616 H         1 <1>         0.0235 
     68 H23        19.9781   10.3381   14.0417 H         1 <1>         0.0235 
     69 H24        19.9476    8.5527   14.0264 H         1 <1>         0.0235 
     70 H25        17.4741    9.4870    8.9068 H         1 <1>         0.0255 
     71 H26        17.2043   10.0307   10.5873 H         1 <1>         0.0255 
     72 H27        18.1190    8.5333   10.2599 H         1 <1>         0.0255 
     73 H28        25.8675    4.8775   10.3943 H         1 <1>         0.0526 
     74 H29        27.2110    4.0139    9.6033 H         1 <1>         0.0526 
     75 H30        25.5296    3.6290    9.1485 H         1 <1>         0.0526 
     76 H31        26.0738    5.3642    5.7767 H         1 <1>         0.0354 
     77 H32        26.0889    8.0432    4.2949 H         1 <1>         0.0601 
     78 H33        26.5812    5.2674    3.3639 H         1 <1>         0.0375 
     79 H34        23.6477    6.8543    4.6212 H         1 <1>         0.0234 
     80 H35        23.5653    5.3510    5.5531 H         1 <1>         0.0234 
     81 H36        24.3216    5.3452    3.9579 H         1 <1>         0.0234 
     82 H37        28.7084    5.7909    2.0776 H         1 <1>         0.0235 
     83 H38        28.9113    5.6142    3.8182 H         1 <1>         0.0235 
     84 H39        28.8928    7.2421    3.0936 H         1 <1>         0.0235 
     85 H40        25.4691    5.0052    1.1972 H         1 <1>         0.0342 
     86 H41        27.0309    5.5289    0.5085 H         1 <1>         0.0342 
     87 H42        25.9366    7.3539   -0.7200 H         1 <1>         0.0598 
     88 H43        23.2634    6.1942    0.2724 H         1 <1>         0.0348 
     89 H44        24.5202    8.8867    1.0375 H         1 <1>         0.0603 
     90 H46        27.6456    8.0158    1.2013 H         1 <1>         0.2128 
     91 H47        23.5170    7.1771   -2.1294 H         1 <1>         0.0234 
     92 H48        23.9201    8.7392   -1.3814 H         1 <1>         0.0234 
     93 H49        22.3046    8.0215   -1.2018 H         1 <1>         0.0234 
     94 H50        24.7385    4.7915   -1.2224 H         1 <1>         0.2098 
     95 H51        22.3732    7.3730    2.6022 H         1 <1>         0.0320 
     96 H52        21.8069    9.5779    0.5525 H         1 <1>         0.0233 
     97 H53        20.7015    9.1515    1.8819 H         1 <1>         0.0233 
     98 H54        21.0679    7.9299    0.6666 H         1 <1>         0.0233 
     99 H55        23.1907   10.3508    2.6679 H         1 <1>         0.0233 
    100 H56        23.8919    9.1304    3.7481 H         1 <1>         0.0233 
    101 H57        22.1555    9.4974    3.8479 H         1 <1>         0.0233 
    102 H58        28.1513    6.7224    5.7478 H         1 <1>         0.2098 
@<TRIPOS>BOND
     1    2    1 1    
     2    2    3 1    
     3    3    4 1    
     4    4    5 1    
     5    5    6 1    
     6    1    7 1    
     7    7    8 2    
     8    8    9 1    
     9    8   10 1    
    10   10   11 2    
    11   11   12 1    
    12   12   13 1    
    13   11   14 1    
    14   14   15 2    
    15   14   16 1    
    16   16   17 1    
    17    5   18 2    
    18   18   19 1    
    19   19   20 2    
    20   20   21 1    
    21   17   21 1    
    22    2   22 1    
    23    3   23 1    
    24    1   24 1    
    25   21   25 1    
    26   25   26 1    
    27   17   27 1    
    28   27   28 1    
    29   28   29 1    
    30   29   30 1    
    31   27   31 1    
    32   29   32 1    
    33   30   33 1    
    34   33   34 1    
    35   34   35 1    
    36   35   36 1    
    37   36   37 1    
    38   30   37 1    
    39   30   38 1    
    40   35   39 1    
    41   34   40 1    
    42   36   41 1    
    43   41   42 1    
    44   41   43 1    
    45   28   44 1    
    46   17   45 1    
    47    1   46 1    
    48    2   47 1    
    49    3   48 1    
    50    4   49 1    
    51    4   50 1    
    52    6   51 1    
    53    6   52 1    
    54    6   53 1    
    55    7   54 1    
    56    9   55 1    
    57    9   56 1    
    58    9   57 1    
    59   10   58 1    
    60   13   59 1    
    61   13   60 1    
    62   13   61 1    
    63   18   62 1    
    64   19   63 1    
    65   20   64 1    
    66   21   65 1    
    67   22   66 1    
    68   23   67 1    
    69   23   68 1    
    70   23   69 1    
    71   24   70 1    
    72   24   71 1    
    73   24   72 1    
    74   26   73 1    
    75   26   74 1    
    76   26   75 1    
    77   27   76 1    
    78   28   77 1    
    79   29   78 1    
    80   31   79 1    
    81   31   80 1    
    82   31   81 1    
    83   32   82 1    
    84   32   83 1    
    85   32   84 1    
    86   33   85 1    
    87   33   86 1    
    88   34   87 1    
    89   35   88 1    
    90   36   89 1    
    91   38   90 1    
    92   39   91 1    
    93   39   92 1    
    94   39   93 1    
    95   40   94 1    
    96   41   95 1    
    97   42   96 1    
    98   42   97 1    
    99   42   98 1    
   100   43   99 1    
   101   43  100 1    
   102   43  101 1    
   103   44  102 1    
@<TRIPOS>SUBSTRUCTURE
     1 ****        2 TEMP              0 ****  ****    0 ROOT 
@<TRIPOS>NORMAL
@<TRIPOS>FF_PBC
FORCE_FIELD_SETUP_FEATURE Force Field Setup information
v1.0  0 0.000000 0.000000 0.000000 0.000000 0.000000 0.000000 NONE 0 0 0 0 1 0 0 0 0 0 0 0 0
