#	Name:			PISM01042
#	Creating user name:	malab
#	Creation time:		Tue Jul 02 22:32:57 2019

#	Modifying user name:	malab
#	Modification time:	Tue Jul 02 22:33:49 2019

@<TRIPOS>MOLECULE
PISM01042
   38    38     1     1     0
SMALL
GAST_HUCK


@<TRIPOS>ATOM
      1 C1         -5.6027    8.3648   -3.2717 C.ar      1 <1>        -0.0317 
      2 C2         -6.3874    9.0996   -2.3750 C.ar      1 <1>        -0.0408 
      3 C3         -6.2312   10.4888   -2.3147 C.ar      1 <1>         0.0291 
      4 C4         -5.3011   11.1249   -3.1404 C.ar      1 <1>        -0.0632 
      5 C5         -4.5221   10.3839   -4.0336 C.ar      1 <1>        -0.0393 
      6 C6         -4.6729    8.9926   -4.1057 C.ar      1 <1>         0.0849 
      7 C7         -7.4087    8.4032   -1.4659 C.3       1 <1>        -0.0330 
      8 Cl8        -7.1952   11.4474   -1.2078 Cl        1 <1>        -0.0873 
      9 O9         -3.9234    8.2000   -4.9877 O.3       1 <1>        -0.3194 
     10 C10        -2.9960    8.7677   -5.9275 C.3       1 <1>         0.0725 
     11 C11        -2.3826    7.6163   -6.7631 C.3       1 <1>        -0.0015 
     12 C12        -1.3778    8.1434   -7.8181 C.3       1 <1>         0.0501 
     13 O13        -0.8616    7.0148   -8.5507 O.3       1 <1>        -0.3797 
     14 C14         0.0847    7.3800   -9.5756 C.3       1 <1>         0.0477 
     15 C15         0.5591    6.0847  -10.2806 C.3       1 <1>        -0.0297 
     16 C16         1.5823    6.3895  -11.4089 C.3       1 <1>        -0.0538 
     17 C17         2.0547    5.0884  -12.1078 C.3       1 <1>        -0.0652 
     18 H1         -5.7066    7.2870   -3.3330 H         1 <1>         0.0479 
     19 H2         -5.1850   12.2027   -3.0856 H         1 <1>         0.0578 
     20 H3         -3.8114   10.9139   -4.6557 H         1 <1>         0.0487 
     21 H4         -8.4140    8.7962   -1.6799 H         1 <1>         0.0391 
     22 H5         -7.1583    8.6062   -0.4138 H         1 <1>         0.0391 
     23 H6         -7.4210    7.3134   -1.6170 H         1 <1>         0.0391 
     24 H7         -2.1904    9.2972   -5.3936 H         1 <1>         0.0615 
     25 H8         -3.5217    9.4651   -6.6000 H         1 <1>         0.0615 
     26 H9         -3.1909    7.0694   -7.2757 H         1 <1>         0.0313 
     27 H10        -1.8665    6.9123   -6.0899 H         1 <1>         0.0313 
     28 H11        -0.5592    8.6790   -7.3095 H         1 <1>         0.0560 
     29 H12        -1.8946    8.8398   -8.4990 H         1 <1>         0.0560 
     30 H13         0.9542    7.8938   -9.1334 H         1 <1>         0.0560 
     31 H14        -0.3874    8.0459  -10.3168 H         1 <1>         0.0560 
     32 H15        -0.3194    5.5698  -10.7032 H         1 <1>         0.0287 
     33 H16         1.0184    5.4211   -9.5296 H         1 <1>         0.0287 
     34 H17         2.4578    6.9079  -10.9837 H         1 <1>         0.0263 
     35 H18         1.1191    7.0528  -12.1584 H         1 <1>         0.0263 
     36 H19         1.1988    4.5620  -12.5581 H         1 <1>         0.0230 
     37 H20         2.5408    4.4178  -11.3822 H         1 <1>         0.0230 
     38 H21         2.7780    5.3263  -12.9039 H         1 <1>         0.0230 
@<TRIPOS>BOND
     1    2    1 ar   
     2    2    3 ar   
     3    3    4 ar   
     4    4    5 ar   
     5    5    6 ar   
     6    1    6 ar   
     7    2    7 1    
     8    3    8 1    
     9    6    9 1    
    10    9   10 1    
    11   10   11 1    
    12   11   12 1    
    13   12   13 1    
    14   13   14 1    
    15   14   15 1    
    16   15   16 1    
    17   16   17 1    
    18    1   18 1    
    19    4   19 1    
    20    5   20 1    
    21    7   21 1    
    22    7   22 1    
    23    7   23 1    
    24   10   24 1    
    25   10   25 1    
    26   11   26 1    
    27   11   27 1    
    28   12   28 1    
    29   12   29 1    
    30   14   30 1    
    31   14   31 1    
    32   15   32 1    
    33   15   33 1    
    34   16   34 1    
    35   16   35 1    
    36   17   36 1    
    37   17   37 1    
    38   17   38 1    
@<TRIPOS>SUBSTRUCTURE
     1 ****        2 TEMP              0 ****  ****    0 ROOT 
@<TRIPOS>NORMAL
@<TRIPOS>FF_PBC
FORCE_FIELD_SETUP_FEATURE Force Field Setup information
v1.0  0 0.000000 0.000000 0.000000 0.000000 0.000000 0.000000 NONE 0 0 0 0 1 0 0 0 0 0 0 0 0
