#	Name:			PISM00819.2
#	Creating user name:	baoopengkun
#	Creation time:		Fri Nov 30 17:41:04 2018

#	Modifying user name:	baoopengkun
#	Modification time:	Fri Nov 30 17:44:45 2018

@<TRIPOS>MOLECULE
PISM00819.2
   40    42     1     2     0
SMALL
GAST_HUCK


@<TRIPOS>ATOM
      1 C1          2.7658   14.2335    6.4728 C.ar      1 <1>        -0.0631 
      2 C2          2.3565   15.2921    5.6598 C.ar      1 <1>        -0.0635 
      3 C3          2.3178   15.1244    4.2737 C.ar      1 <1>        -0.0575 
      4 C4          2.7077   13.9099    3.6956 C.ar      1 <1>        -0.0259 
      5 C5          3.1746   12.8631    4.5045 C.ar      1 <1>        -0.0175 
      6 C6          3.1528   13.0203    5.8975 C.ar      1 <1>        -0.0561 
      7 C7          2.6268   13.7399    2.3084 C.ar      1 <1>        -0.0640 
      8 C8          3.0218   12.5356    1.7224 C.ar      1 <1>        -0.0722 
      9 C9          3.5379   11.5133    2.5207 C.ar      1 <1>        -0.0660 
     10 C10         3.6424   11.6837    3.9053 C.ar      1 <1>        -0.0184 
     11 C11         4.2761   10.5709    4.7141 C.2       1 <1>         0.0876 
     12 C12         5.4619   10.9045    5.5308 C.2       1 <1>         0.2418 
     13 O13         5.9835   12.1385    5.4504 O.3       1 <1>        -0.2861 
     14 C14         7.1171   12.3594    6.3120 C.3       1 <1>         0.0639 
     15 O15         5.9560   10.0662    6.2689 O.2       1 <1>        -0.3759 
     16 C16         3.7448    9.3426    4.6499 C.2       1 <1>         0.1096 
     17 O17         4.2896    8.3351    5.3468 O.3       1 <1>        -0.2470 
     18 C18         3.6321    7.0729    5.1547 C.3       1 <1>         0.2466 
     19 C19         4.2226    6.0931    6.1384 C.2       1 <1>         0.0006 
     20 C20         3.2950    5.6818    7.0010 C.2       1 <1>         0.0294 
     21 C21         2.0922    6.3845    6.5697 C.2       1 <1>         0.2497 
     22 O22         2.2387    7.1743    5.5133 O.3       1 <1>        -0.2291 
     23 C23         3.4345    4.7135    8.1436 C.3       1 <1>        -0.0323 
     24 O24         1.0194    6.2549    7.1334 O.2       1 <1>        -0.3691 
     25 H1          2.7819   14.3537    7.5520 H         1 <1>         0.0598 
     26 H2          2.0674   16.2399    6.1037 H         1 <1>         0.0613 
     27 H3          1.9808   15.9484    3.6522 H         1 <1>         0.0605 
     28 H4          3.4291   12.2068    6.5589 H         1 <1>         0.0623 
     29 H5          2.2554   14.5390    1.6739 H         1 <1>         0.0535 
     30 H6          2.9316   12.3963    0.6493 H         1 <1>         0.0590 
     31 H7          3.8655   10.5887    2.0556 H         1 <1>         0.0523 
     32 H8          7.4559   13.3950    6.1627 H         1 <1>         0.0574 
     33 H9          7.9490   11.6813    6.0627 H         1 <1>         0.0574 
     34 H10         6.8425   12.2323    7.3714 H         1 <1>         0.0574 
     35 H11         2.8620    9.2039    4.0204 H         1 <1>         0.1357 
     36 H12         3.7433    6.6995    4.1226 H         1 <1>         0.1229 
     37 H13         5.2653    5.7775    6.1394 H         1 <1>         0.0707 
     38 H14         4.3439    4.1040    8.0321 H         1 <1>         0.0347 
     39 H15         2.5596    4.0468    8.1717 H         1 <1>         0.0347 
     40 H16         3.4893    5.2726    9.0893 H         1 <1>         0.0347 
@<TRIPOS>BOND
     1    2    1 ar   
     2    2    3 ar   
     3    3    4 ar   
     4    4    5 ar   
     5    5    6 ar   
     6    1    6 ar   
     7    4    7 ar   
     8    7    8 ar   
     9    8    9 ar   
    10    9   10 ar   
    11    5   10 ar   
    12   10   11 1    
    13   11   12 1    
    14   12   13 1    
    15   13   14 1    
    16   12   15 2    
    17   11   16 2    
    18   16   17 1    
    19   17   18 1    
    20   18   19 1    
    21   19   20 2    
    22   20   21 1    
    23   21   22 1    
    24   18   22 1    
    25   20   23 1    
    26   21   24 2    
    27    1   25 1    
    28    2   26 1    
    29    3   27 1    
    30    6   28 1    
    31    7   29 1    
    32    8   30 1    
    33    9   31 1    
    34   14   32 1    
    35   14   33 1    
    36   14   34 1    
    37   16   35 1    
    38   18   36 1    
    39   19   37 1    
    40   23   38 1    
    41   23   39 1    
    42   23   40 1    
@<TRIPOS>SUBSTRUCTURE
     1 ****        2 TEMP              0 ****  ****    0 ROOT 
@<TRIPOS>NORMAL
@<TRIPOS>FF_PBC
FORCE_FIELD_SETUP_FEATURE Force Field Setup information
v1.0  0 0.000000 0.000000 0.000000 0.000000 0.000000 0.000000 NONE 0 0 0 0 1 0 0 0 0 0 0 0 0
@<TRIPOS>RENDERING_ATTRS
ANTIALIASED_LINES 
*
