#	Name:			PISM00629
#	Creating user name:	baoopengkun
#	Creation time:		Fri Jan 04 21:46:16 2019

#	Modifying user name:	baoopengkun
#	Modification time:	Fri Jan 04 21:49:09 2019

@<TRIPOS>MOLECULE
PISM00629
   54    58     1     1     0
SMALL
GAST_HUCK


@<TRIPOS>ATOM
      1 C1          3.8518   -2.1991    4.2835 C.3       1 <1>         0.0939 
      2 C2          2.6038   -2.3591    3.3814 C.3       1 <1>         0.1959 
      3 O3          2.2821   -1.0104    3.0144 O.3       1 <1>        -0.3516 
      4 C4          3.4630   -0.2136    3.1787 C.3       1 <1>         0.1939 
      5 O5          3.9871   -0.7775    4.3886 O.3       1 <1>        -0.3786 
      6 O6          2.9373   -3.1269    2.2145 O.3       1 <1>        -0.2898 
      7 C7          2.0590   -3.2224    1.1268 C.ar      1 <1>         0.0982 
      8 C8          0.7228   -2.8064    1.2132 C.ar      1 <1>        -0.0391 
      9 C9         -0.1169   -2.8896    0.0989 C.ar      1 <1>        -0.0774 
     10 C10         0.3674   -3.4019   -1.1064 C.ar      1 <1>        -0.0793 
     11 C11         1.6925   -3.8346   -1.1923 C.ar      1 <1>        -0.0668 
     12 C12         2.5388   -3.7430   -0.0818 C.ar      1 <1>        -0.0024 
     13 C13         3.9921   -4.2174   -0.2068 C.3       1 <1>         0.0122 
     14 C14         4.0064   -5.7381   -0.0136 C.ar      1 <1>        -0.0337 
     15 C15         3.9882   -6.2762    1.2781 C.ar      1 <1>        -0.0587 
     16 C16         4.0104   -7.6611    1.4669 C.ar      1 <1>        -0.0683 
     17 C17         4.0461   -8.5168    0.3625 C.ar      1 <1>        -0.0686 
     18 C18         4.0572   -7.9846   -0.9298 C.ar      1 <1>        -0.0683 
     19 C19         4.0354   -6.5993   -1.1166 C.ar      1 <1>        -0.0587 
     20 C20         3.1096    1.2648    3.3753 C.ar      1 <1>         0.0069 
     21 C21         3.9058    2.0753    4.1914 C.ar      1 <1>        -0.0348 
     22 C22         3.6041    3.4318    4.3439 C.ar      1 <1>        -0.0180 
     23 C23         2.5029    3.9822    3.6826 C.ar      1 <1>         0.0714 
     24 C24         1.6960    3.1718    2.8797 C.ar      1 <1>        -0.0180 
     25 C25         1.9945    1.8143    2.7333 C.ar      1 <1>        -0.0348 
     26 Cl26        2.1343    5.6855    3.8602 Cl        1 <1>        -0.0420 
     27 C27         4.4445   -0.3189    1.9836 C.3       1 <1>         0.1074 
     28 N28         3.9358    0.4633    0.8678 N.pl3     1 <1>        -0.1814 
     29 N29         4.3751    1.6900    0.4698 N.2       1 <1>        -0.1908 
     30 C30         3.7398    2.1459   -0.5450 C.2       1 <1>         0.0618 
     31 N31         2.8170    1.0719   -0.7904 N.2       1 <1>        -0.2870 
     32 C32         2.9831    0.1501    0.0446 C.2       1 <1>         0.1270 
     33 H1          4.7438   -2.6265    3.7993 H         1 <1>         0.0604 
     34 H2          3.7373   -2.6472    5.2824 H         1 <1>         0.0604 
     35 H3          1.7698   -2.8181    3.9363 H         1 <1>         0.0978 
     36 H4          0.3088   -2.4123    2.1329 H         1 <1>         0.0522 
     37 H5         -1.1481   -2.5561    0.1691 H         1 <1>         0.0533 
     38 H6         -0.2841   -3.4645   -1.9729 H         1 <1>         0.0506 
     39 H7          2.0608   -4.2439   -2.1276 H         1 <1>         0.0530 
     40 H8          4.6415   -3.7440    0.5445 H         1 <1>         0.0561 
     41 H9          4.3912   -3.9406   -1.1947 H         1 <1>         0.0561 
     42 H10         3.9556   -5.6192    2.1413 H         1 <1>         0.0560 
     43 H11         3.9997   -8.0725    2.4717 H         1 <1>         0.0600 
     44 H12         4.0649   -9.5926    0.5080 H         1 <1>         0.0560 
     45 H13         4.0825   -8.6480   -1.7890 H         1 <1>         0.0600 
     46 H14         4.0399   -6.1980   -2.1249 H         1 <1>         0.0560 
     47 H15         4.7623    1.6517    4.7065 H         1 <1>         0.0849 
     48 H16         4.2244    4.0599    4.9751 H         1 <1>         0.0703 
     49 H17         0.8382    3.5984    2.3699 H         1 <1>         0.0703 
     50 H18         1.3584    1.1885    2.1154 H         1 <1>         0.0849 
     51 H19         5.4096    0.1102    2.2915 H         1 <1>         0.0595 
     52 H20         4.6146   -1.3554    1.6650 H         1 <1>         0.0595 
     53 H21         3.8664    3.0885   -1.0752 H         1 <1>         0.0863 
     54 H22         2.3992   -0.7675    0.0612 H         1 <1>         0.1361 
@<TRIPOS>BOND
     1    2    1 1    
     2    2    3 1    
     3    3    4 1    
     4    4    5 1    
     5    1    5 1    
     6    2    6 1    
     7    6    7 1    
     8    7    8 ar   
     9    8    9 ar   
    10    9   10 ar   
    11   10   11 ar   
    12   11   12 ar   
    13    7   12 ar   
    14   12   13 1    
    15   13   14 1    
    16   14   15 ar   
    17   15   16 ar   
    18   16   17 ar   
    19   17   18 ar   
    20   18   19 ar   
    21   14   19 ar   
    22    4   20 1    
    23   20   21 ar   
    24   21   22 ar   
    25   22   23 ar   
    26   23   24 ar   
    27   24   25 ar   
    28   20   25 ar   
    29   23   26 1    
    30    4   27 1    
    31   27   28 1    
    32   28   29 1    
    33   29   30 2    
    34   30   31 1    
    35   31   32 2    
    36   28   32 1    
    37    1   33 1    
    38    1   34 1    
    39    2   35 1    
    40    8   36 1    
    41    9   37 1    
    42   10   38 1    
    43   11   39 1    
    44   13   40 1    
    45   13   41 1    
    46   15   42 1    
    47   16   43 1    
    48   17   44 1    
    49   18   45 1    
    50   19   46 1    
    51   21   47 1    
    52   22   48 1    
    53   24   49 1    
    54   25   50 1    
    55   27   51 1    
    56   27   52 1    
    57   30   53 1    
    58   32   54 1    
@<TRIPOS>SUBSTRUCTURE
     1 ****        2 TEMP              0 ****  ****    0 ROOT 
@<TRIPOS>NORMAL
@<TRIPOS>FF_PBC
FORCE_FIELD_SETUP_FEATURE Force Field Setup information
v1.0  0 0.000000 0.000000 0.000000 0.000000 0.000000 0.000000 NONE 0 0 0 0 1 0 0 0 0 0 0 0 0
