#	Name:			PISM00512
#	Creating user name:	malab
#	Creation time:		Thu Apr 04 11:57:39 2019

#	Modifying user name:	malab
#	Modification time:	Thu Apr 04 11:59:01 2019

@<TRIPOS>MOLECULE
PISM00512
  107   115     1     1     0
SMALL
GAST_HUCK


@<TRIPOS>ATOM
      1 C1         18.3715    2.5249   -5.6993 C.3       1 <1>         0.1431 
      2 C2         18.2191    1.2019   -5.0084 C.2       1 <1>         0.0140 
      3 C3         18.0149    1.1249   -3.6909 C.2       1 <1>        -0.0529 
      4 C4         17.9627    2.3571   -2.8039 C.3       1 <1>         0.0635 
      5 C5         18.6460    3.5990   -3.3946 C.3       1 <1>        -0.0084 
      6 C6         17.9292    3.6804   -4.7580 C.3       1 <1>         0.1071 
      7 C7         18.7926    2.1090   -1.5035 C.3       1 <1>        -0.0406 
      8 C8         19.9768    3.1270   -1.5309 C.3       1 <1>        -0.0138 
      9 C9         20.1449    3.3763   -3.0683 C.3       1 <1>         0.0486 
     10 C10        18.1314    1.9909   -0.1116 C.3       1 <1>        -0.0653 
     11 C11        21.1400    2.5100   -0.7100 C.3       1 <1>        -0.0465 
     12 C12        20.5305    2.5765    0.7178 C.3       1 <1>         0.0482 
     13 C13        19.2738    1.6705    0.9065 C.3       1 <1>        -0.0563 
     14 C14        20.0493    3.9931    0.6899 C.2       1 <1>        -0.0328 
     15 C15        19.7011    4.4311   -0.7021 C.3       1 <1>        -0.0133 
     16 C16        19.9475    4.7660    1.7762 C.2       1 <1>        -0.0406 
     17 O17        21.5159    2.3753    1.7406 O.3       1 <1>        -0.4347 
     18 O18        16.6101    2.7993   -2.9380 O.3       1 <1>        -0.3321 
     19 C19        18.0459    5.0744   -5.4390 C.3       1 <1>        -0.0456 
     20 C20        16.5570    3.4251   -4.1380 C.2       1 <1>         0.2558 
     21 O21        15.5108    3.8044   -4.6368 O.2       1 <1>        -0.3128 
     22 O22        17.5564    2.4159   -6.8803 O.3       1 <1>        -0.3589 
     23 C23        21.0401    4.5435   -3.3949 C.2       1 <1>         0.1788 
     24 O24        20.5386    5.6048   -3.7237 O.2       1 <1>        -0.3968 
     25 N25        22.3775    4.3793   -3.3051 N.am      1 <1>        -0.2845 
     26 C26        23.2644    5.5226   -3.5095 C.3       1 <1>         0.0543 
     27 C27        23.2237    6.4321   -2.2581 C.3       1 <1>         0.0678 
     28 O28        24.1794    7.4957   -2.4378 O.3       1 <1>        -0.3755 
     29 C29        24.2101    8.4322   -1.3408 C.3       1 <1>         0.0711 
     30 C30        25.2689    9.5091   -1.6663 C.3       1 <1>         0.0711 
     31 O31        25.2848   10.5039   -0.6200 O.3       1 <1>        -0.3755 
     32 C32        26.2655   11.5368   -0.8460 C.3       1 <1>         0.0678 
     33 C33        26.1811   12.5992    0.2766 C.3       1 <1>         0.0538 
     34 N34        27.1876   13.6256   -0.0084 N.am      1 <1>        -0.2833 
     35 C35        28.2927   13.7612    0.7620 C.2       1 <1>         0.2094 
     36 O36        28.4337   13.1429    1.8033 O.2       1 <1>        -0.3829 
     37 C37        30.1437   15.3875    1.3244 C.ar      1 <1>        -0.0302 
     38 C38        31.1966   16.2310    0.9540 C.ar      1 <1>        -0.0284 
     39 C39        31.5600   16.3777   -0.3895 C.ar      1 <1>         0.0823 
     40 C40        30.8190   15.6944   -1.3626 C.ar      1 <1>         0.0300 
     41 C41        29.7592   14.8609   -0.9915 C.ar      1 <1>        -0.0186 
     42 C42        29.4161   14.6928    0.3539 C.ar      1 <1>         0.0619 
     43 C43        32.7387   17.2586   -0.7574 C.2       1 <1>         0.2679 
     44 O44        33.2640   17.9488    0.1018 O.2       1 <1>        -0.3531 
     45 O45        33.2095   17.2893   -2.0070 O.3       1 <1>        -0.2925 
     46 C46        31.1229   15.8203   -2.8396 C.2       1 <1>         0.0263 
     47 C47        31.5644   14.7686   -3.5417 C.2       1 <1>         0.0395 
     48 C48        31.8202   13.4480   -2.9163 C.2       1 <1>        -0.0500 
     49 C49        32.1803   12.3935   -3.6560 C.2       1 <1>        -0.0373 
     50 C50        32.3484   12.5366   -5.1074 C.2       1 <1>         0.0666 
     51 C51        32.1687   13.8563   -5.7272 C.2       1 <1>        -0.0198 
     52 C52        31.8059   14.9159   -4.9966 C.2       1 <1>         0.1275 
     53 O53        31.6591   16.0980   -5.6079 O.3       1 <1>        -0.2389 
     54 C54        31.2310   17.2226   -4.9021 C.ar      1 <1>         0.1462 
     55 C55        30.9190   17.1431   -3.5424 C.ar      1 <1>         0.0433 
     56 C56        30.4329   18.2754   -2.8778 C.ar      1 <1>        -0.0500 
     57 C57        30.3179   19.4944   -3.5533 C.ar      1 <1>        -0.0280 
     58 C58        30.6607   19.5828   -4.9081 C.ar      1 <1>         0.0948 
     59 C59        31.1095   18.4404   -5.5744 C.ar      1 <1>         0.0164 
     60 O60        32.6406   11.5671   -5.7884 O.2       1 <1>        -0.4441 
     61 O61        30.5633   20.7873   -5.6113 O.3       1 <1>        -0.3270 
     62 H1         19.4322    2.6529   -5.9768 H         1 <1>         0.1020 
     63 H2         18.2644    0.2968   -5.6161 H         1 <1>         0.1556 
     64 H3         17.8619    0.1402   -3.2456 H         1 <1>         0.0491 
     65 H4         18.3405    4.5210   -2.8740 H         1 <1>         0.0204 
     66 H5         19.2555    1.1171   -1.6404 H         1 <1>         0.0190 
     67 H6         20.5222    2.4723   -3.5717 H         1 <1>         0.0535 
     68 H7         17.3836    1.1805   -0.1145 H         1 <1>         0.0249 
     69 H8         17.6033    2.9189    0.1515 H         1 <1>         0.0249 
     70 H9         22.0392    3.1455   -0.7577 H         1 <1>         0.0176 
     71 H10        21.4306    1.4889   -1.0010 H         1 <1>         0.0176 
     72 H11        18.8899    1.7912    1.9322 H         1 <1>         0.0167 
     73 H12        19.5944    0.6229    0.7882 H         1 <1>         0.0167 
     74 H13        20.3962    5.2385   -0.9761 H         1 <1>         0.0432 
     75 H14        18.6750    4.8249   -0.7110 H         1 <1>         0.0432 
     76 H15        19.5917    5.7923    1.7008 H         1 <1>         0.1257 
     77 H16        20.2228    4.3715    2.7538 H         1 <1>         0.1257 
     78 H17        21.8662    1.4916    1.7148 H         1 <1>         0.1919 
     79 H18        19.0609    5.2190   -5.8380 H         1 <1>         0.0225 
     80 H19        17.8303    5.8874   -4.7292 H         1 <1>         0.0225 
     81 H20        17.3248    5.1648   -6.2639 H         1 <1>         0.0225 
     82 H21        17.6152    3.1601   -7.4703 H         1 <1>         0.2177 
     83 H22        22.7803    3.4965   -3.0571 H         1 <1>         0.1851 
     84 H23        22.9631    6.1021   -4.3982 H         1 <1>         0.0543 
     85 H24        24.3033    5.1871   -3.6680 H         1 <1>         0.0543 
     86 H25        23.4748    5.8278   -1.3710 H         1 <1>         0.0580 
     87 H26        22.2059    6.8372   -2.1380 H         1 <1>         0.0580 
     88 H27        24.4844    7.9352   -0.3958 H         1 <1>         0.0583 
     89 H28        23.2327    8.9256   -1.2126 H         1 <1>         0.0583 
     90 H29        25.0055    9.9668   -2.6341 H         1 <1>         0.0583 
     91 H30        26.2502    9.0158   -1.7636 H         1 <1>         0.0583 
     92 H31        26.0843   12.0352   -1.8138 H         1 <1>         0.0580 
     93 H32        27.2845   11.1131   -0.8496 H         1 <1>         0.0580 
     94 H33        26.3236   12.0990    1.2487 H         1 <1>         0.0542 
     95 H34        25.1723   13.0426    0.2781 H         1 <1>         0.0542 
     96 H35        27.0400   14.2024   -0.8131 H         1 <1>         0.1846 
     97 H36        31.7360   16.7712    1.7264 H         1 <1>         0.0700 
     98 H37        29.2104   14.3315   -1.7636 H         1 <1>         0.0755 
     99 H38        29.8905   15.2727    2.3738 H         1 <1>         0.0732 
    100 H39        33.9486   17.8826   -2.0963 H         1 <1>         0.2523 
    101 H40        31.7275   13.2903   -1.8419 H         1 <1>         0.0660 
    102 H41        32.3568   11.4170   -3.2041 H         1 <1>         0.0516 
    103 H42        32.3327   13.9633   -6.7996 H         1 <1>         0.0191 
    104 H43        30.1388   18.2227   -1.8351 H         1 <1>         0.0652 
    105 H44        29.9603   20.3681   -3.0179 H         1 <1>         0.0526 
    106 H45        31.3646   18.4995   -6.6265 H         1 <1>         0.0506 
    107 H46        30.2522   21.5235   -5.0965 H         1 <1>         0.2529 
@<TRIPOS>BOND
     1    1    2 1    
     2    3    2 2    
     3    4    3 1    
     4    5    4 1    
     5    5    6 1    
     6    6    1 1    
     7    4    7 1    
     8    8    7 1    
     9    9    8 1    
    10    9    5 1    
    11    7   10 1    
    12    8   11 1    
    13   11   12 1    
    14   12   13 1    
    15   10   13 1    
    16   14   12 1    
    17    8   15 1    
    18   15   14 1    
    19   14   16 2    
    20   12   17 1    
    21    4   18 1    
    22    6   19 1    
    23    6   20 1    
    24   20   21 2    
    25   20   18 1    
    26    1   22 1    
    27   23    9 1    
    28   23   24 2    
    29   25   23 am   
    30   26   25 1    
    31   27   26 1    
    32   28   27 1    
    33   29   28 1    
    34   30   29 1    
    35   31   30 1    
    36   32   31 1    
    37   33   32 1    
    38   34   33 1    
    39   35   34 am   
    40   35   36 2    
    41   42   35 1    
    42   37   38 ar   
    43   38   39 ar   
    44   40   39 ar   
    45   41   40 ar   
    46   42   41 ar   
    47   42   37 ar   
    48   39   43 1    
    49   43   44 2    
    50   43   45 1    
    51   40   46 1    
    52   46   47 2    
    53   47   48 1    
    54   48   49 2    
    55   49   50 1    
    56   51   50 1    
    57   52   51 2    
    58   47   52 1    
    59   52   53 1    
    60   54   53 1    
    61   55   54 ar   
    62   46   55 1    
    63   55   56 ar   
    64   56   57 ar   
    65   57   58 ar   
    66   59   58 ar   
    67   54   59 ar   
    68   50   60 2    
    69   58   61 1    
    70    1   62 1    
    71    2   63 1    
    72    3   64 1    
    73    5   65 1    
    74    7   66 1    
    75    9   67 1    
    76   10   68 1    
    77   10   69 1    
    78   11   70 1    
    79   11   71 1    
    80   13   72 1    
    81   13   73 1    
    82   15   74 1    
    83   15   75 1    
    84   16   76 1    
    85   16   77 1    
    86   17   78 1    
    87   19   79 1    
    88   19   80 1    
    89   19   81 1    
    90   22   82 1    
    91   25   83 1    
    92   26   84 1    
    93   26   85 1    
    94   27   86 1    
    95   27   87 1    
    96   29   88 1    
    97   29   89 1    
    98   30   90 1    
    99   30   91 1    
   100   32   92 1    
   101   32   93 1    
   102   33   94 1    
   103   33   95 1    
   104   34   96 1    
   105   38   97 1    
   106   41   98 1    
   107   37   99 1    
   108   45  100 1    
   109   48  101 1    
   110   49  102 1    
   111   51  103 1    
   112   56  104 1    
   113   57  105 1    
   114   59  106 1    
   115   61  107 1    
@<TRIPOS>SUBSTRUCTURE
     1 ****       37 TEMP              0 ****  ****    0 ROOT 
@<TRIPOS>NORMAL
@<TRIPOS>FF_PBC
FORCE_FIELD_SETUP_FEATURE Force Field Setup information
v1.0  0 0.000000 0.000000 0.000000 0.000000 0.000000 0.000000 NONE 0 0 0 0 1 0 0 0 0 0 0 0 0
