#	Name:			PISM00298
#	Creating user name:	baoopengkun
#	Creation time:		Sun Dec 16 04:18:28 2018

#	Modifying user name:	baoopengkun
#	Modification time:	Sun Dec 16 04:24:47 2018

@<TRIPOS>MOLECULE
PISM00298
   36    38     1     1     0
SMALL
GAST_HUCK


@<TRIPOS>ATOM
      1 C1         -2.7595   10.2732   47.3712 C.3       1 <1>        -0.0307 
      2 C2         -1.5138    9.3846   47.1234 C.3       1 <1>        -0.0490 
      3 C3         -1.9033    7.8774   47.0600 C.3       1 <1>        -0.0307 
      4 C4         -3.3929    7.6706   46.6689 C.3       1 <1>         0.0372 
      5 N5         -3.8149    8.7264   45.7468 N.am      1 <1>        -0.2861 
      6 C6         -3.7089   10.1306   46.1503 C.3       1 <1>         0.0372 
      7 C7         -4.3722    8.4252   44.5391 C.2       1 <1>         0.1064 
      8 S8         -5.0827    9.6526   43.5712 S.2       1 <1>        -0.2662 
      9 C9         -4.4165    7.0651   43.9659 C.2       1 <1>         0.1637 
     10 O10        -5.5818    6.5306   43.5896 O.3       1 <1>        -0.2442 
     11 C11        -5.1970    5.3315   43.1370 C.2       1 <1>         0.1306 
     12 C12        -3.8848    5.0822   43.1949 C.2       1 <1>        -0.0405 
     13 C13        -3.3368    6.3052   43.7754 C.2       1 <1>        -0.0368 
     14 C14        -6.2363    4.3641   42.6036 C.ar      1 <1>         0.0162 
     15 C15        -5.9326    3.0413   42.2545 C.ar      1 <1>        -0.0520 
     16 C16        -6.9242    2.1908   41.7561 C.ar      1 <1>        -0.0621 
     17 C17        -8.2356    2.6498   41.6107 C.ar      1 <1>        -0.0627 
     18 C18        -8.5507    3.9638   41.9646 C.ar      1 <1>        -0.0621 
     19 C19        -7.5549    4.8127   42.4565 C.ar      1 <1>        -0.0520 
     20 H1         -2.4639   11.3288   47.4964 H         1 <1>         0.0287 
     21 H2         -3.2597    9.9545   48.3000 H         1 <1>         0.0287 
     22 H3         -0.7593    9.5495   47.9110 H         1 <1>         0.0267 
     23 H4         -1.0664    9.6965   46.1640 H         1 <1>         0.0267 
     24 H5         -1.7324    7.3960   48.0383 H         1 <1>         0.0287 
     25 H6         -1.2521    7.3733   46.3262 H         1 <1>         0.0287 
     26 H7         -4.0230    7.7733   47.5674 H         1 <1>         0.0545 
     27 H8         -3.5499    6.6400   46.3186 H         1 <1>         0.0545 
     28 H9         -4.7031   10.5410   46.3912 H         1 <1>         0.0545 
     29 H10        -3.2746   10.7213   45.3261 H         1 <1>         0.0545 
     30 H11        -3.3031    4.2117   42.8992 H         1 <1>         0.0424 
     31 H12        -2.2954    6.5371   43.9945 H         1 <1>         0.0486 
     32 H13        -4.9293    2.6495   42.3659 H         1 <1>         0.0617 
     33 H14        -6.6762    1.1697   41.4817 H         1 <1>         0.0615 
     34 H15        -9.0059    1.9890   41.2249 H         1 <1>         0.0609 
     35 H16        -9.5690    4.3251   41.8571 H         1 <1>         0.0615 
     36 H17        -7.8183    5.8314   42.7235 H         1 <1>         0.0617 
@<TRIPOS>BOND
     1    2    1 1    
     2    2    3 1    
     3    3    4 1    
     4    4    5 1    
     5    5    6 1    
     6    1    6 1    
     7    5    7 am   
     8    7    8 2    
     9    7    9 1    
    10    9   10 1    
    11   10   11 1    
    12   11   12 2    
    13   12   13 1    
    14    9   13 2    
    15   11   14 1    
    16   14   15 ar   
    17   15   16 ar   
    18   16   17 ar   
    19   17   18 ar   
    20   18   19 ar   
    21   14   19 ar   
    22    1   20 1    
    23    1   21 1    
    24    2   22 1    
    25    2   23 1    
    26    3   24 1    
    27    3   25 1    
    28    4   26 1    
    29    4   27 1    
    30    6   28 1    
    31    6   29 1    
    32   12   30 1    
    33   13   31 1    
    34   15   32 1    
    35   16   33 1    
    36   17   34 1    
    37   18   35 1    
    38   19   36 1    
@<TRIPOS>SUBSTRUCTURE
     1 ****        2 TEMP              0 ****  ****    0 ROOT 
@<TRIPOS>NORMAL
@<TRIPOS>FF_PBC
FORCE_FIELD_SETUP_FEATURE Force Field Setup information
v1.0  0 0.000000 0.000000 0.000000 0.000000 0.000000 0.000000 NONE 0 0 0 0 1 0 0 0 0 0 0 0 0
