#	Name:			PISM00505
#	Creating user name:	malab
#	Creation time:		Thu Apr 04 12:19:50 2019

#	Modifying user name:	malab
#	Modification time:	Thu Apr 04 12:21:23 2019

@<TRIPOS>MOLECULE
PISM00505
   55    54     1     1     0
SMALL
GAST_HUCK


@<TRIPOS>ATOM
      1 C1         29.8309    6.7115   -1.0047 C.3       1 <1>        -0.0653 
      2 C2         30.2391    7.4262   -2.3205 C.3       1 <1>        -0.0556 
      3 C3         29.0266    7.9645   -3.1326 C.3       1 <1>        -0.0495 
      4 C4         28.3052    9.1612   -2.4489 C.3       1 <1>        -0.0339 
      5 P5         26.8196    9.8185   -3.3141 P.3       1 <1>        -0.1138 
      6 C6         25.3428    8.7695   -2.9903 C.3       1 <1>        -0.0339 
      7 C7         25.4368    7.2600   -3.3286 C.3       1 <1>        -0.0495 
      8 C8         24.0602    6.5557   -3.1807 C.3       1 <1>        -0.0556 
      9 C9         24.1650    5.0500   -3.5360 C.3       1 <1>        -0.0653 
     10 C10        26.3491   11.4568   -2.6259 C.3       1 <1>        -0.0012 
     11 C11        27.2662   12.5993   -3.0838 C.ar      1 <1>        -0.0247 
     12 C12        28.4664   12.8373   -2.4026 C.ar      1 <1>        -0.0588 
     13 C13        29.3408   13.8414   -2.8278 C.ar      1 <1>        -0.0544 
     14 C14        29.0093   14.6336   -3.9288 C.ar      1 <1>         0.0335 
     15 C15        27.7942   14.4318   -4.5867 C.ar      1 <1>        -0.0406 
     16 C16        26.9247   13.4204   -4.1681 C.ar      1 <1>         0.0421 
     17 Cl17       30.1085   15.8787   -4.4825 Cl        1 <1>        -0.0770 
     18 Cl18       25.4204   13.2054   -5.0448 Cl        1 <1>        -0.0771 
     19 C19        27.1383    9.8675   -5.1224 C.3       1 <1>        -0.0339 
     20 C20        28.3598   10.7139   -5.5765 C.3       1 <1>        -0.0495 
     21 C21        28.9266   10.2248   -6.9371 C.3       1 <1>        -0.0556 
     22 C22        30.0977   11.1241   -7.4120 C.3       1 <1>        -0.0653 
     23 Cl23       27.9109    6.5098   -6.8860 Cl        0 <0>        -1.0000 
     24 H1         29.3698    7.4092   -0.2919 H         1 <1>         0.0230 
     25 H2         30.7225    6.2791   -0.5239 H         1 <1>         0.0230 
     26 H3         29.1200    5.8977   -1.2159 H         1 <1>         0.0230 
     27 H4         30.7803    6.6950   -2.9467 H         1 <1>         0.0263 
     28 H5         30.9306    8.2543   -2.0946 H         1 <1>         0.0263 
     29 H6         28.3299    7.1369   -3.3183 H         1 <1>         0.0268 
     30 H7         29.4019    8.2978   -4.1133 H         1 <1>         0.0268 
     31 H8         29.0335    9.9805   -2.3650 H         1 <1>         0.0312 
     32 H9         27.9657    8.8988   -1.4375 H         1 <1>         0.0312 
     33 H10        24.5270    9.2151   -3.5803 H         1 <1>         0.0312 
     34 H11        25.0905    8.8769   -1.9234 H         1 <1>         0.0312 
     35 H12        26.1476    6.7823   -2.6372 H         1 <1>         0.0268 
     36 H13        25.8039    7.1373   -4.3601 H         1 <1>         0.0268 
     37 H14        23.3240    7.0281   -3.8512 H         1 <1>         0.0263 
     38 H15        23.7012    6.6647   -2.1443 H         1 <1>         0.0263 
     39 H16        23.1876    4.5609   -3.4033 H         1 <1>         0.0230 
     40 H17        24.8993    4.5500   -2.8857 H         1 <1>         0.0230 
     41 H18        24.4798    4.9245   -4.5840 H         1 <1>         0.0230 
     42 H19        26.3620   11.3752   -1.5286 H         1 <1>         0.0474 
     43 H20        25.3091   11.6544   -2.9178 H         1 <1>         0.0474 
     44 H21        28.7281   12.2444   -1.5334 H         1 <1>         0.0557 
     45 H22        30.2760   14.0077   -2.3031 H         1 <1>         0.0607 
     46 H23        27.5262   15.0593   -5.4294 H         1 <1>         0.0612 
     47 H24        26.2265   10.2054   -5.6386 H         1 <1>         0.0312 
     48 H25        27.3088    8.8183   -5.3987 H         1 <1>         0.0312 
     49 H26        29.1557   10.6638   -4.8185 H         1 <1>         0.0268 
     50 H27        28.0630   11.7652   -5.6854 H         1 <1>         0.0268 
     51 H28        28.1243   10.2332   -7.6935 H         1 <1>         0.0263 
     52 H29        29.2933    9.1896   -6.8352 H         1 <1>         0.0263 
     53 H30        30.5073   10.7441   -8.3615 H         1 <1>         0.0230 
     54 H31        30.9055   11.1356   -6.6634 H         1 <1>         0.0230 
     55 H32        29.7459   12.1552   -7.5693 H         1 <1>         0.0230 
@<TRIPOS>BOND
     1    2    1 1    
     2    2    3 1    
     3    3    4 1    
     4    4    5 1    
     5    5    6 1    
     6    6    7 1    
     7    7    8 1    
     8    8    9 1    
     9    5   10 1    
    10   10   11 1    
    11   11   12 ar   
    12   12   13 ar   
    13   13   14 ar   
    14   14   15 ar   
    15   15   16 ar   
    16   11   16 ar   
    17   14   17 1    
    18   16   18 1    
    19    5   19 1    
    20   19   20 1    
    21   20   21 1    
    22   21   22 1    
    23    1   24 1    
    24    1   25 1    
    25    1   26 1    
    26    2   27 1    
    27    2   28 1    
    28    3   29 1    
    29    3   30 1    
    30    4   31 1    
    31    4   32 1    
    32    6   33 1    
    33    6   34 1    
    34    7   35 1    
    35    7   36 1    
    36    8   37 1    
    37    8   38 1    
    38    9   39 1    
    39    9   40 1    
    40    9   41 1    
    41   10   42 1    
    42   10   43 1    
    43   12   44 1    
    44   13   45 1    
    45   15   46 1    
    46   19   47 1    
    47   19   48 1    
    48   20   49 1    
    49   20   50 1    
    50   21   51 1    
    51   21   52 1    
    52   22   53 1    
    53   22   54 1    
    54   22   55 1    
@<TRIPOS>SUBSTRUCTURE
     1 ****        2 TEMP              0 ****  ****    0 ROOT 
@<TRIPOS>NORMAL
@<TRIPOS>FF_PBC
FORCE_FIELD_SETUP_FEATURE Force Field Setup information
v1.0  0 0.000000 0.000000 0.000000 0.000000 0.000000 0.000000 NONE 0 0 0 0 1 0 0 0 0 0 0 0 0
