#	Name:			PISM00628
#	Creating user name:	baoopengkun
#	Creation time:		Mon Dec 10 11:06:47 2018

#	Modifying user name:	baoopengkun
#	Modification time:	Mon Dec 10 11:07:07 2018

@<TRIPOS>MOLECULE
PISM00628
   54    58     1     2     0
SMALL
GAST_HUCK


@<TRIPOS>ATOM
      1 C1         14.3588   -2.3710  -29.0883 C.ar      1 PHENYL     -0.0348 
      2 C2         14.4650   -3.6094  -28.4496 C.ar      1 PHENYL     -0.0180 
      3 C3         13.9648   -4.7589  -29.0672 C.ar      1 PHENYL      0.0714 
      4 C4         13.3223   -4.6634  -30.3044 C.ar      1 PHENYL     -0.0180 
      5 C5         13.2090   -3.4230  -30.9383 C.ar      1 PHENYL     -0.0348 
      6 C6         13.7606   -2.2807  -30.3494 C.ar      1 PHENYL      0.0068 
      7 C7         13.7079   -0.9338  -31.0817 C.3       1 PHENYL      0.1921 
      8 C8         12.3754   -0.2282  -30.7477 C.3       1 PHENYL      0.1073 
      9 N9         12.1549   -0.2229  -29.3079 N.pl3     1 PHENYL     -0.1814 
     10 N10        12.5324    0.7487  -28.4306 N.2       1 PHENYL     -0.1908 
     11 C11        12.1912    0.4961  -27.2218 C.2       1 PHENYL      0.0618 
     12 N12        11.5235   -0.7654  -27.3881 N.2       1 PHENYL     -0.2870 
     13 C13        11.5342   -1.1120  -28.5938 C.2       1 PHENYL      0.1270 
     14 O14        14.8386   -0.1035  -30.7833 O.3       1 PHENYL     -0.3814 
     15 C15        15.9519   -0.6802  -31.4697 C.3       1 PHENYL      0.0672 
     16 C16        15.2793   -1.1495  -32.7826 C.3       1 PHENYL      0.1005 
     17 O17        13.8698   -1.1020  -32.4981 O.3       1 PHENYL     -0.3757 
     18 C18        15.7552   -2.5515  -33.2437 C.3       1 PHENYL      0.0986 
     19 O19        15.5556   -3.5241  -32.2047 O.3       1 PHENYL     -0.3127 
     20 C20        15.9758   -4.8131  -32.5249 C.ar      1 PHENYL      0.1018 
     21 C21        15.1024   -5.6932  -33.1682 C.ar      1 PHENYL     -0.0312 
     22 C22        15.5322   -6.9804  -33.5039 C.ar      1 PHENYL     -0.0700 
     23 C23        16.8347   -7.3846  -33.1942 C.ar      1 PHENYL     -0.0718 
     24 C24        17.7050   -6.5063  -32.5413 C.ar      1 PHENYL     -0.0617 
     25 C25        17.2716   -5.2219  -32.1999 C.ar      1 PHENYL      0.0127 
     26 C          18.1693   -4.2780  -31.4921 C.ar      1 PHENYL     -0.0216 
     27 C          19.3707   -3.8691  -32.0782 C.ar      1 PHENYL     -0.0569 
     28 Cl29       14.1439   -6.3190  -28.2917 Cl        1 PHENYL     -0.0420 
     29 H1         14.7402   -1.4769  -28.6043 H         1 PHENYL      0.0849 
     30 H2         14.9377   -3.6803  -27.4755 H         1 PHENYL      0.0703 
     31 H3         12.9152   -5.5538  -30.7724 H         1 PHENYL      0.0703 
     32 H4         12.7007   -3.3477  -31.8942 H         1 PHENYL      0.0849 
     33 H5         11.5519   -0.7510  -31.2575 H         1 PHENYL      0.0595 
     34 H6         12.4177    0.8060  -31.1199 H         1 PHENYL      0.0595 
     35 H7         12.3605    1.0800  -26.3184 H         1 PHENYL      0.0863 
     36 H8         11.0837   -2.0312  -28.9665 H         1 PHENYL      0.1361 
     37 H9         16.3427   -1.5253  -30.8844 H         1 PHENYL      0.0576 
     38 H10        16.7599    0.0527  -31.6180 H         1 PHENYL      0.0576 
     39 H11        15.4522   -0.4114  -33.5833 H         1 PHENYL      0.0635 
     40 H12        16.8257   -2.4978  -33.5010 H         1 PHENYL      0.0642 
     41 H13        15.1830   -2.8394  -34.1402 H         1 PHENYL      0.0642 
     42 H14        14.0936   -5.3727  -33.4052 H         1 PHENYL      0.0543 
     43 H15        14.8552   -7.6656  -34.0050 H         1 PHENYL      0.0592 
     44 H16        17.1705   -8.3822  -33.4601 H         1 PHENYL      0.0527 
     45 H17        18.7147   -6.8214  -32.2974 H         1 PHENYL      0.0595 
     46 C          20.1921   -2.9501  -31.4186 C.ar      1 PHENYL     -0.0631 
     47 C          19.8140   -2.4422  -30.1719 C.ar      1 PHENYL     -0.0634 
     48 C          18.6204   -2.8632  -29.5782 C.ar      1 PHENYL     -0.0631 
     49 C          17.8045   -3.7887  -30.2345 C.ar      1 PHENYL     -0.0569 
     50 H18        19.6638   -4.2623  -33.0465 H         1 PHENYL      0.0607 
     51 H19        21.1239   -2.6303  -31.8750 H         1 PHENYL      0.0613 
     52 H20        20.4479   -1.7215  -29.6643 H         1 PHENYL      0.0603 
     53 H21        18.3265   -2.4718  -28.6090 H         1 PHENYL      0.0613 
     54 H22        16.8849   -4.1270  -29.7693 H         1 PHENYL      0.0607 
@<TRIPOS>BOND
     1    1    2 ar   
     2    2    3 ar   
     3    3    4 ar   
     4    4    5 ar   
     5    5    6 ar   
     6    6    1 ar   
     7    6    7 1    
     8    7    8 1    
     9    8    9 1    
    10    9   10 1    
    11   10   11 2    
    12   11   12 1    
    13   12   13 2    
    14    9   13 1    
    15    7   14 1    
    16   14   15 1    
    17   15   16 1    
    18   16   17 1    
    19   17    7 1    
    20   16   18 1    
    21   18   19 1    
    22   19   20 1    
    23   20   21 ar   
    24   21   22 ar   
    25   22   23 ar   
    26   23   24 ar   
    27   24   25 ar   
    28   25   20 ar   
    29   25   26 1    
    30   26   27 ar   
    31   26   49 ar   
    32    3   28 1    
    33    1   29 1    
    34    2   30 1    
    35    4   31 1    
    36    5   32 1    
    37    8   33 1    
    38    8   34 1    
    39   11   35 1    
    40   13   36 1    
    41   15   37 1    
    42   15   38 1    
    43   16   39 1    
    44   18   40 1    
    45   18   41 1    
    46   21   42 1    
    47   22   43 1    
    48   23   44 1    
    49   24   45 1    
    50   49   48 ar   
    51   48   47 ar   
    52   47   46 ar   
    53   27   46 ar   
    54   27   50 1    
    55   46   51 1    
    56   47   52 1    
    57   48   53 1    
    58   49   54 1    
@<TRIPOS>SUBSTRUCTURE
     1 PHENYL     26 PERM              0 ****  ****    0 ROOT 
@<TRIPOS>NORMAL
@<TRIPOS>FF_PBC
FORCE_FIELD_SETUP_FEATURE Force Field Setup information
v1.0  0 0.000000 0.000000 0.000000 0.000000 0.000000 0.000000 NONE 0 0 0 0 1 0 0 0 0 0 0 0 0
@<TRIPOS>RENDERING_ATTRS
ANTIALIASED_LINES 
*
