#	Name:			PISM00855.1
#	Creating user name:	baoopengkun
#	Creation time:		Thu Dec 13 15:12:19 2018

#	Modifying user name:	baoopengkun
#	Modification time:	Thu Dec 13 20:10:51 2018

@<TRIPOS>MOLECULE
PISM00855.1
   24    25     1     1     0
SMALL
GAST_HUCK


@<TRIPOS>ATOM
      1 F1          0.6592   -1.4126    1.2579 F         1 <1>        -0.1876 
      2 C2          2.1424   -2.5588    2.6897 C.ar      1 <1>        -0.0339 
      3 C3          3.3159   -2.5699    3.4494 C.ar      1 <1>        -0.0652 
      4 C4          4.1259   -1.4317    3.4994 C.ar      1 <1>         0.0001 
      5 C5          3.7595   -0.2844    2.7900 C.ar      1 <1>        -0.0247 
      6 C6          2.5920   -0.2746    2.0226 C.ar      1 <1>         0.1341 
      7 C7          1.7794   -1.4127    1.9776 C.ar      1 <1>         0.1631 
      8 Br8         5.6826   -1.4429    4.5031 Br        1 <1>        -0.0564 
      9 O9          2.2494    0.8750    1.3090 O.3       1 <1>        -0.2702 
     10 C10         2.3549    0.7579   -0.1179 C.3       1 <1>         0.2350 
     11 O11         2.0674    2.0497   -0.6890 O.3       1 <1>        -0.2315 
     12 C12         3.1952    2.4348   -1.2734 C.2       1 <1>         0.2494 
     13 C13         4.2978    1.4834   -1.1986 C.2       1 <1>         0.0292 
     14 C14         3.7841    0.4650   -0.5118 C.2       1 <1>        -0.0021 
     15 C15         5.6793    1.6180   -1.7783 C.3       1 <1>        -0.0323 
     16 O16         3.2955    3.5096   -1.8396 O.2       1 <1>        -0.3691 
     17 H1          1.5087   -3.4388    2.6493 H         1 <1>         0.0581 
     18 H2          3.5977   -3.4618    4.0005 H         1 <1>         0.0539 
     19 H3          4.3806    0.6040    2.8303 H         1 <1>         0.0556 
     20 H4          1.6577    0.0135   -0.5358 H         1 <1>         0.1197 
     21 H5          4.3212   -0.4498   -0.2636 H         1 <1>         0.0705 
     22 H6          6.0494    0.6399   -2.1202 H         1 <1>         0.0347 
     23 H7          6.3601    2.0135   -1.0101 H         1 <1>         0.0347 
     24 H8          5.6625    2.3108   -2.6331 H         1 <1>         0.0347 
@<TRIPOS>BOND
     1    7    1 1    
     2    2    3 ar   
     3    3    4 ar   
     4    4    5 ar   
     5    5    6 ar   
     6    6    7 ar   
     7    2    7 ar   
     8    4    8 1    
     9    6    9 1    
    10    9   10 1    
    11   10   11 1    
    12   11   12 1    
    13   12   13 1    
    14   13   14 2    
    15   10   14 1    
    16   13   15 1    
    17   12   16 2    
    18    2   17 1    
    19    3   18 1    
    20    5   19 1    
    21   10   20 1    
    22   14   21 1    
    23   15   22 1    
    24   15   23 1    
    25   15   24 1    
@<TRIPOS>SUBSTRUCTURE
     1 ****        2 TEMP              0 ****  ****    0 ROOT 
@<TRIPOS>NORMAL
@<TRIPOS>FF_PBC
FORCE_FIELD_SETUP_FEATURE Force Field Setup information
v1.0  0 0.000000 0.000000 0.000000 0.000000 0.000000 0.000000 NONE 0 0 0 0 1 0 0 0 0 0 0 0 0
