#	Name:			PISM00912.1
#	Creating user name:	baoopengkun
#	Creation time:		Fri Dec 14 10:31:16 2018

#	Modifying user name:	baoopengkun
#	Modification time:	Fri Dec 14 10:44:43 2018

@<TRIPOS>MOLECULE
PISM00912.1
   34    36     1     1     0
SMALL
GAST_HUCK


@<TRIPOS>ATOM
      1 C1         24.6017   17.1829  -14.8330 C.ar      1 <1>         0.0873 
      2 C2         25.3931   18.3221  -14.6376 C.ar      1 <1>        -0.0294 
      3 C3         25.7628   18.7365  -13.3487 C.ar      1 <1>        -0.0620 
      4 C4         25.3581   18.0187  -12.2158 C.ar      1 <1>        -0.0488 
      5 C5         24.5930   16.8719  -12.4246 C.ar      1 <1>         0.0636 
      6 C6         24.2341   16.4577  -13.6993 C.ar      1 <1>         0.0945 
      7 C7         23.4530   15.1822  -13.5057 C.2       1 <1>         0.2371 
      8 N8         23.3548   14.9060  -12.1913 N.am      1 <1>        -0.1423 
      9 C9         23.9959   15.8549  -11.4839 C.2       1 <1>         0.2414 
     10 O10        22.9928   14.5181  -14.4180 O.2       1 <1>        -0.3740 
     11 O11        24.0923   15.9028  -10.2699 O.2       1 <1>        -0.3670 
     12 C12        22.6222   13.7881  -11.6242 C.3       1 <1>         0.2213 
     13 O13        21.2143   14.0551  -11.7794 O.3       1 <1>        -0.2348 
     14 C14        20.7666   13.1065  -12.5930 C.2       1 <1>         0.2491 
     15 C15        21.7593   12.1271  -13.0217 C.2       1 <1>         0.0288 
     16 C16        22.8786   12.5344  -12.4263 C.2       1 <1>        -0.0059 
     17 C17        21.5653   10.9459  -13.9320 C.3       1 <1>        -0.0323 
     18 O18        19.6003   13.0587  -12.9445 O.2       1 <1>        -0.3691 
     19 N19        24.2173   16.8087  -16.0748 N.pl3     1 <1>        -0.2342 
     20 C20        22.9753   16.8616  -16.4738 C.2       1 <1>         0.1994 
     21 C21        21.8599   17.3507  -15.5809 C.3       1 <1>         0.0315 
     22 O22        22.6831   16.5086  -17.6042 O.2       1 <1>        -0.3790 
     23 H1         25.7208   18.8940  -15.5000 H         1 <1>         0.0578 
     24 H2         26.3713   19.6277  -13.2260 H         1 <1>         0.0632 
     25 H3         25.6263   18.3347  -11.2128 H         1 <1>         0.0584 
     26 H4         22.8612   13.6292  -10.5593 H         1 <1>         0.1152 
     27 H5         23.8467   12.0430  -12.5124 H         1 <1>         0.0702 
     28 H6         21.4450   10.0334  -13.3297 H         1 <1>         0.0347 
     29 H7         22.4363   10.8304  -14.5944 H         1 <1>         0.0347 
     30 H8         20.6662   11.0899  -14.5498 H         1 <1>         0.0347 
     31 H9         24.9342   16.4860  -16.7419 H         1 <1>         0.2133 
     32 H10        21.4920   16.5304  -14.9494 H         1 <1>         0.0475 
     33 H11        21.0235   17.7082  -16.2001 H         1 <1>         0.0475 
     34 H12        22.1886   18.1838  -14.9430 H         1 <1>         0.0475 
@<TRIPOS>BOND
     1    2    1 ar   
     2    2    3 ar   
     3    3    4 ar   
     4    4    5 ar   
     5    6    5 ar   
     6    1    6 ar   
     7    6    7 1    
     8    7    8 am   
     9    9    8 am   
    10    5    9 1    
    11    7   10 2    
    12    9   11 2    
    13    8   12 1    
    14   12   13 1    
    15   13   14 1    
    16   15   14 1    
    17   16   15 2    
    18   12   16 1    
    19   15   17 1    
    20   14   18 2    
    21    1   19 1    
    22   19   20 1    
    23   20   21 1    
    24   20   22 2    
    25    2   23 1    
    26    3   24 1    
    27    4   25 1    
    28   12   26 1    
    29   16   27 1    
    30   17   28 1    
    31   17   29 1    
    32   17   30 1    
    33   19   31 1    
    34   21   32 1    
    35   21   33 1    
    36   21   34 1    
@<TRIPOS>SUBSTRUCTURE
     1 ****        2 TEMP              0 ****  ****    0 ROOT 
@<TRIPOS>NORMAL
@<TRIPOS>FF_PBC
FORCE_FIELD_SETUP_FEATURE Force Field Setup information
v1.0  0 0.000000 0.000000 0.000000 0.000000 0.000000 0.000000 NONE 0 0 0 0 1 0 0 0 0 0 0 0 0
