#	Name:			PISM01102
#	Creating user name:	Qinrunwen
#	Creation time:		Mon Apr 01 14:54:15 2019

#	Modifying user name:	Qinrunwen
#	Modification time:	Mon Apr 01 14:57:18 2019

@<TRIPOS>MOLECULE
PISM01102
   55    58     1     1     0
SMALL
GAST_HUCK


@<TRIPOS>ATOM
      1 C1          0.0473   44.8510    3.6134 C.ar      1 <1>        -0.0130 
      2 C2         -0.9381   43.8732    3.7857 C.ar      1 <1>         0.1005 
      3 C3         -0.5813   42.6334    4.3270 C.ar      1 <1>        -0.0295 
      4 C4          0.7508   42.3741    4.6592 C.ar      1 <1>        -0.0513 
      5 C5          1.7268   43.3605    4.4967 C.ar      1 <1>         0.0496 
      6 C6          1.3795   44.6115    3.9729 C.ar      1 <1>         0.0663 
      7 C7          2.4306   45.6896    3.7883 C.2       1 <1>         0.2584 
      8 O8          2.1997   46.9880    3.9994 O.3       1 <1>        -0.2936 
      9 O9          3.5513   45.3765    3.4269 O.2       1 <1>        -0.3571 
     10 N10        -2.2137   44.1625    3.4325 N.pl3     1 <1>        -0.1338 
     11 N11        -2.7760   45.3881    3.5310 N.2       1 <1>        -0.2037 
     12 C12        -3.9825   45.4086    3.1390 C.2       1 <1>         0.0441 
     13 C13        -4.3406   44.0551    2.6856 C.2       1 <1>         0.0738 
     14 C14        -3.0848   43.3275    2.9319 C.2       1 <1>         0.2534 
     15 O15        -2.9192   42.1421    2.6954 O.2       1 <1>        -0.3653 
     16 C16        -4.8105   46.6647    3.1671 C.3       1 <1>        -0.0197 
     17 C17        -5.5109   43.6312    2.1901 C.2       1 <1>        -0.0329 
     18 C18        -5.7706   42.2302    1.6822 C.ar      1 <1>        -0.0260 
     19 C19        -6.8909   41.5343    2.1397 C.ar      1 <1>        -0.0636 
     20 C20        -7.2171   40.2928    1.5882 C.ar      1 <1>        -0.0307 
     21 C21        -6.4449   39.7422    0.5560 C.ar      1 <1>         0.1329 
     22 C22        -5.2503   40.3830    0.1815 C.ar      1 <1>         0.1279 
     23 C23        -4.9338   41.6249    0.7410 C.ar      1 <1>        -0.0255 
     24 O24        -6.8596   38.5766   -0.1040 O.3       1 <1>        -0.3023 
     25 C25        -8.2389   38.1677   -0.1298 C.3       1 <1>         0.1045 
     26 C26        -8.3565   37.0961   -1.2209 C.ar      1 <1>        -0.0128 
     27 C27        -8.2273   37.4740   -2.5619 C.ar      1 <1>        -0.0578 
     28 C28        -8.3013   36.5167   -3.5779 C.ar      1 <1>        -0.0685 
     29 C29        -8.5147   35.1737   -3.2573 C.ar      1 <1>        -0.0687 
     30 C30        -8.6586   34.7923   -1.9203 C.ar      1 <1>        -0.0685 
     31 C31        -8.5848   35.7509   -0.9055 C.ar      1 <1>        -0.0578 
     32 O32        -4.3464   39.8367   -0.7471 O.3       1 <1>        -0.3230 
     33 C33        -4.5582   38.5910   -1.4327 C.3       1 <1>         0.0571 
     34 Cl34        3.3766   43.0028    4.9707 Cl        1 <1>        -0.0750 
     35 H1         -0.2351   45.8042    3.1792 H         1 <1>         0.0595 
     36 H2         -1.3277   41.8680    4.5057 H         1 <1>         0.0578 
     37 H3          1.0303   41.4012    5.0510 H         1 <1>         0.0606 
     38 H4          1.3389   47.1734    4.3503 H         1 <1>         0.2523 
     39 H5         -4.3253   47.4227    2.5346 H         1 <1>         0.0398 
     40 H6         -4.8591   47.0429    4.1987 H         1 <1>         0.0398 
     41 H7         -5.8338   46.5058    2.8014 H         1 <1>         0.0398 
     42 H8         -6.3591   44.3093    2.1285 H         1 <1>         0.0805 
     43 H9         -7.5113   41.9586    2.9238 H         1 <1>         0.0568 
     44 H10        -8.0824   39.7716    1.9795 H         1 <1>         0.0541 
     45 H11        -4.0277   42.1280    0.4198 H         1 <1>         0.0555 
     46 H12        -8.8954   39.0111   -0.3991 H         1 <1>         0.0780 
     47 H13        -8.5493   37.7627    0.8451 H         1 <1>         0.0780 
     48 H14        -8.0672   38.5166   -2.8190 H         1 <1>         0.0557 
     49 H15        -8.1922   36.8164   -4.6155 H         1 <1>         0.0599 
     50 H16        -8.5687   34.4281   -4.0448 H         1 <1>         0.0559 
     51 H17        -8.8273   33.7489   -1.6699 H         1 <1>         0.0599 
     52 H18        -8.7044   35.4411    0.1278 H         1 <1>         0.0557 
     53 H19        -3.6812   38.4097   -2.0698 H         1 <1>         0.0573 
     54 H20        -5.4453   38.6412   -2.0823 H         1 <1>         0.0573 
     55 H21        -4.6444   37.7527   -0.7244 H         1 <1>         0.0573 
@<TRIPOS>BOND
     1    2    1 ar   
     2    2    3 ar   
     3    3    4 ar   
     4    4    5 ar   
     5    5    6 ar   
     6    1    6 ar   
     7    6    7 1    
     8    7    8 1    
     9    7    9 2    
    10    2   10 1    
    11   10   11 1    
    12   11   12 2    
    13   12   13 1    
    14   13   14 1    
    15   10   14 1    
    16   14   15 2    
    17   12   16 1    
    18   13   17 2    
    19   17   18 1    
    20   18   19 ar   
    21   19   20 ar   
    22   20   21 ar   
    23   21   22 ar   
    24   22   23 ar   
    25   18   23 ar   
    26   21   24 1    
    27   24   25 1    
    28   25   26 1    
    29   26   27 ar   
    30   27   28 ar   
    31   28   29 ar   
    32   29   30 ar   
    33   30   31 ar   
    34   26   31 ar   
    35   22   32 1    
    36   32   33 1    
    37    5   34 1    
    38    1   35 1    
    39    3   36 1    
    40    4   37 1    
    41    8   38 1    
    42   16   39 1    
    43   16   40 1    
    44   16   41 1    
    45   17   42 1    
    46   19   43 1    
    47   20   44 1    
    48   23   45 1    
    49   25   46 1    
    50   25   47 1    
    51   27   48 1    
    52   28   49 1    
    53   29   50 1    
    54   30   51 1    
    55   31   52 1    
    56   33   53 1    
    57   33   54 1    
    58   33   55 1    
@<TRIPOS>SUBSTRUCTURE
     1 ****        2 TEMP              0 ****  ****    0 ROOT 
@<TRIPOS>NORMAL
@<TRIPOS>FF_PBC
FORCE_FIELD_SETUP_FEATURE Force Field Setup information
v1.0  0 0.000000 0.000000 0.000000 0.000000 0.000000 0.000000 NONE 0 0 0 0 1 0 0 0 0 0 0 0 0
