#	Name:			PISM00528
#	Creating user name:	baoopengkun
#	Creation time:		Sun Dec 16 00:53:04 2018

#	Modifying user name:	baoopengkun
#	Modification time:	Sun Dec 16 01:00:32 2018

@<TRIPOS>MOLECULE
PISM00528
  136   142     1     1     0
SMALL
GAST_HUCK


@<TRIPOS>ATOM
      1 N1         -4.5635   28.9838   33.7332 N.2       1 <1>        -0.1959 
      2 N2         -5.0304   27.7769   33.5062 N.2       1 <1>        -0.1959 
      3 C3         -3.5797   27.8979   33.6788 C.3       1 <1>         0.2677 
      4 C4         -2.9292   27.3829   34.9823 C.3       1 <1>         0.4127 
      5 F5         -1.6332   27.7975   34.9996 F         1 <1>        -0.1743 
      6 F6         -3.5667   27.8582   36.0863 F         1 <1>        -0.1743 
      7 F7         -2.9528   26.0224   34.9885 F         1 <1>        -0.1743 
      8 C8         -2.7461   27.8048   32.4046 C.ar      1 <1>         0.0006 
      9 C9         -2.0229   28.9167   31.9640 C.ar      1 <1>        -0.0416 
     10 C10        -1.1901   28.8074   30.8470 C.ar      1 <1>        -0.0212 
     11 C11        -1.0529   27.5783   30.1938 C.ar      1 <1>         0.1068 
     12 C12        -1.8411   26.4917   30.5856 C.ar      1 <1>         0.1392 
     13 C13        -2.6947   26.6079   31.6852 C.ar      1 <1>        -0.0029 
     14 C14        -0.0536   27.4096   29.0708 C.2       1 <1>         0.2196 
     15 O15        -0.4655   27.0112   27.9947 O.2       1 <1>        -0.3781 
     16 N16         1.2618   27.6759   29.2411 N.am      1 <1>        -0.2842 
     17 C17         1.8226   28.0871   30.5302 C.3       1 <1>         0.0308 
     18 C18         3.2682   27.5399   30.6906 C.3       1 <1>        -0.0285 
     19 C19         3.8695   27.7181   32.1186 C.3       1 <1>        -0.0091 
     20 C20         4.1618   29.1835   32.5625 C.3       1 <1>         0.1422 
     21 N21         4.2571   29.3220   34.0203 N.am      1 <1>        -0.2615 
     22 C22         5.4008   29.7554   31.9103 C.2       1 <1>         0.2572 
     23 O23         6.3888   30.0784   32.5512 O.2       1 <1>        -0.3680 
     24 O24         5.3519   29.9076   30.5864 O.3       1 <1>        -0.2909 
     25 C25         5.0762   28.5350   34.7535 C.2       1 <1>         0.2268 
     26 O26         5.7372   27.6217   34.2891 O.2       1 <1>        -0.3419 
     27 C27         5.1792   28.8178   36.2321 C.3       1 <1>         0.1349 
     28 C28         6.5810   28.7452   36.8822 C.3       1 <1>        -0.0068 
     29 C29         6.6706   28.3922   38.3889 C.3       1 <1>        -0.0516 
     30 C30         6.7823   26.8571   38.5653 C.3       1 <1>        -0.0651 
     31 C31         5.9540   30.1171   36.5555 C.3       1 <1>        -0.0154 
     32 N32         3.9734   28.6446   37.0315 N.am      1 <1>        -0.2787 
     33 C33         2.9632   29.5255   36.8895 C.2       1 <1>         0.1866 
     34 O34         3.0508   30.4502   36.0975 O.2       1 <1>        -0.3964 
     35 C35         1.7274   29.3931   37.6860 C.2       1 <1>         0.0202 
     36 C36         1.1756   30.4659   38.2751 C.2       1 <1>        -0.0643 
     37 C37         1.0821   28.0417   37.8336 C.3       1 <1>         0.0113 
     38 C38        -0.4388   28.2420   37.9931 C.3       1 <1>         0.0443 
     39 C39        -0.7053   29.0247   39.2940 C.3       1 <1>        -0.0200 
     40 C40        -0.0943   30.4471   39.1121 C.3       1 <1>        -0.0114 
     41 C41         0.1626   31.1452   40.4788 C.3       1 <1>        -0.0431 
     42 C42        -1.1214   31.2767   41.3403 C.3       1 <1>        -0.0630 
     43 C43        -0.8735   26.8156   37.8661 C.2       1 <1>         0.1101 
     44 O44        -1.8508   26.3550   38.4308 O.2       1 <1>        -0.3912 
     45 C45         0.0481   26.0029   37.0004 C.3       1 <1>         0.0233 
     46 C46         1.1523   27.0409   36.6514 C.3       1 <1>        -0.0251 
     47 O47        -1.7734   25.2864   29.8892 O.3       1 <1>        -0.3041 
     48 C48        -0.7043   24.4169   30.3014 C.3       1 <1>         0.0959 
     49 C49        -0.7060   23.1696   29.3905 C.3       1 <1>         0.0757 
     50 O50         0.3515   22.2880   29.8201 O.3       1 <1>        -0.3748 
     51 C51         0.4607   21.0969   29.0131 C.3       1 <1>         0.0711 
     52 C52         1.6092   20.2248   29.5682 C.3       1 <1>         0.0711 
     53 O53         1.7312   19.0517   28.7376 O.3       1 <1>        -0.3755 
     54 C54         2.7723   18.1506   29.1652 C.3       1 <1>         0.0678 
     55 C55         2.8186   16.9598   28.1760 C.3       1 <1>         0.0543 
     56 N56         3.8510   15.9803   28.5136 N.am      1 <1>        -0.2848 
     57 C57         4.1143   14.9730   27.6521 C.2       1 <1>         0.1760 
     58 C58         5.1740   13.9633   28.0222 C.3       1 <1>         0.0372 
     59 C59         5.4062   12.8978   26.9152 C.3       1 <1>        -0.0360 
     60 O60         3.5182   14.8640   26.5939 O.2       1 <1>        -0.3971 
     61 C61         6.5029   11.8764   27.3344 C.3       1 <1>        -0.0499 
     62 C62         6.8078   10.7884   26.2584 C.3       1 <1>        -0.0388 
     63 C63         5.9263    9.5016   26.2619 C.3       1 <1>         0.0302 
     64 S64         4.1532    9.8158   26.0106 S.3       1 <1>        -0.1527 
     65 C65         3.7331    9.5957   27.7573 C.3       1 <1>         0.0190 
     66 C66         4.6482    8.4351   28.2046 C.3       1 <1>         0.0750 
     67 C67         6.0431    8.5921   27.5240 C.3       1 <1>         0.0775 
     68 N68         4.9710    8.5852   29.6136 N.am      1 <1>        -0.2671 
     69 C69         6.2262    8.9903   29.8133 C.2       1 <1>         0.2580 
     70 N70         6.8585    9.0537   28.6389 N.am      1 <1>        -0.2668 
     71 O71         6.7180    9.2577   30.8944 O.2       1 <1>        -0.4008 
     72 H72         6.2225    8.9114   25.3768 H         1 <1>         0.0435 
     73 H73         6.4223    7.5917   27.2481 H         1 <1>         0.0587 
     74 H74         4.1892    7.4582   27.9727 H         1 <1>         0.0584 
     75 H1         -2.1070   29.8628   32.4907 H         1 <1>         0.0771 
     76 H2         -0.6522   29.6786   30.4873 H         1 <1>         0.0715 
     77 H3         -3.3094   25.7638   31.9797 H         1 <1>         0.0768 
     78 H4          1.8679   27.5884   28.4471 H         1 <1>         0.1846 
     79 H5          1.2315   27.6934   31.3727 H         1 <1>         0.0519 
     80 H6          1.8160   29.1864   30.5735 H         1 <1>         0.0519 
     81 H7          3.9242   27.9938   29.9324 H         1 <1>         0.0287 
     82 H8          3.2215   26.4573   30.4799 H         1 <1>         0.0287 
     83 H9          4.8097   27.1449   32.1435 H         1 <1>         0.0314 
     84 H10         3.1801   27.2675   32.8509 H         1 <1>         0.0314 
     85 H11         3.3314   29.8216   32.2264 H         1 <1>         0.0818 
     86 H12         3.7480   30.0589   34.4815 H         1 <1>         0.1890 
     87 H13         6.1655   30.2721   30.2544 H         1 <1>         0.2540 
     88 H14         7.4070   28.4498   36.2155 H         1 <1>         0.0312 
     89 H15         5.8056   28.7723   38.9556 H         1 <1>         0.0265 
     90 H16         7.5760   28.8726   38.7938 H         1 <1>         0.0265 
     91 H17         7.6782   26.4786   38.0486 H         1 <1>         0.0230 
     92 H18         5.8977   26.3547   38.1453 H         1 <1>         0.0230 
     93 H19         6.8590   26.6014   39.6340 H         1 <1>         0.0230 
     94 H20         6.3735   30.6683   35.6991 H         1 <1>         0.0279 
     95 H21         5.5720   30.7205   37.3929 H         1 <1>         0.0279 
     96 H22         3.9235   27.8734   37.6627 H         1 <1>         0.1822 
     97 H23         1.6710   31.4291   38.1401 H         1 <1>         0.0641 
     98 H24         1.5109   27.5567   38.7279 H         1 <1>         0.0447 
     99 H25        -0.8680   28.7979   37.1435 H         1 <1>         0.0552 
    100 H26        -0.2355   28.4955   40.1381 H         1 <1>         0.0322 
    101 H27        -1.7908   29.0731   39.4799 H         1 <1>         0.0322 
    102 H28        -0.8215   31.0535   38.5446 H         1 <1>         0.0473 
    103 H29         0.5572   32.1595   40.2976 H         1 <1>         0.0290 
    104 H30         0.9257   30.5809   41.0399 H         1 <1>         0.0290 
    105 H31        -1.5018   30.2893   41.6425 H         1 <1>         0.0232 
    106 H32        -1.9080   31.8038   40.7783 H         1 <1>         0.0232 
    107 H33        -0.9021   31.8506   42.2548 H         1 <1>         0.0232 
    108 H34        -0.4578   25.5936   36.1124 H         1 <1>         0.0496 
    109 H35         0.4523   25.1790   37.6093 H         1 <1>         0.0496 
    110 H36         0.8985   27.5730   35.7196 H         1 <1>         0.0312 
    111 H37         2.1399   26.5703   36.5249 H         1 <1>         0.0312 
    112 H38        -0.8474   24.1039   31.3485 H         1 <1>         0.0640 
    113 H39         0.2757   24.9135   30.2111 H         1 <1>         0.0640 
    114 H40        -0.5531   23.4989   28.3492 H         1 <1>         0.0587 
    115 H41        -1.6878   22.6743   29.4675 H         1 <1>         0.0587 
    116 H42         0.6890   21.3511   27.9649 H         1 <1>         0.0583 
    117 H43        -0.4717   20.5092   29.0412 H         1 <1>         0.0583 
    118 H44         1.3746   19.9532   30.6105 H         1 <1>         0.0583 
    119 H45         2.5390   20.8169   29.5542 H         1 <1>         0.0583 
    120 H46         2.5645   17.7718   30.1794 H         1 <1>         0.0580 
    121 H47         3.7536   18.6533   29.1617 H         1 <1>         0.0580 
    122 H48         3.0014   17.3642   27.1663 H         1 <1>         0.0543 
    123 H49         1.8334   16.4652   28.1720 H         1 <1>         0.0543 
    124 H50         4.3376   16.0544   29.3854 H         1 <1>         0.1851 
    125 H51         4.8573   13.4650   28.9517 H         1 <1>         0.0502 
    126 H52         6.1121   14.5062   28.2156 H         1 <1>         0.0502 
    127 H53         5.7149   13.4109   25.9892 H         1 <1>         0.0290 
    128 H54         4.4494   12.3958   26.7192 H         1 <1>         0.0290 
    129 H55         6.2384   11.4173   28.2963 H         1 <1>         0.0267 
    130 H56         7.4255   12.4599   27.4956 H         1 <1>         0.0267 
    131 H57         7.8494   10.4482   26.3828 H         1 <1>         0.0277 
    132 H58         6.7446   11.2593   25.2637 H         1 <1>         0.0277 
    133 H59         2.6652    9.3639   27.8900 H         1 <1>         0.0399 
    134 H60         3.9704   10.5168   28.3084 H         1 <1>         0.0399 
    135 H61         4.3056    8.4522   30.3476 H         1 <1>         0.1849 
    136 H62         7.8184    9.3177   28.5535 H         1 <1>         0.1849 
@<TRIPOS>BOND
     1    2    1 2    
     2    2    3 1    
     3    1    3 1    
     4    3    4 1    
     5    4    5 1    
     6    4    6 1    
     7    4    7 1    
     8    3    8 1    
     9    8    9 ar   
    10    9   10 ar   
    11   10   11 ar   
    12   11   12 ar   
    13   12   13 ar   
    14    8   13 ar   
    15   11   14 1    
    16   14   15 2    
    17   14   16 am   
    18   16   17 1    
    19   17   18 1    
    20   18   19 1    
    21   19   20 1    
    22   20   21 1    
    23   20   22 1    
    24   22   23 2    
    25   22   24 1    
    26   21   25 am   
    27   25   26 2    
    28   25   27 1    
    29   27   28 1    
    30   28   29 1    
    31   29   30 1    
    32   28   31 1    
    33   27   31 1    
    34   27   32 1    
    35   32   33 am   
    36   33   34 2    
    37   33   35 1    
    38   35   36 2    
    39   35   37 1    
    40   37   38 1    
    41   38   39 1    
    42   39   40 1    
    43   36   40 1    
    44   40   41 1    
    45   41   42 1    
    46   38   43 1    
    47   43   44 2    
    48   43   45 1    
    49   45   46 1    
    50   37   46 1    
    51   12   47 1    
    52   47   48 1    
    53   48   49 1    
    54   49   50 1    
    55   50   51 1    
    56   51   52 1    
    57   52   53 1    
    58   53   54 1    
    59   54   55 1    
    60   55   56 1    
    61   56   57 am   
    62   57   58 1    
    63   58   59 1    
    64   57   60 2    
    65   59   61 1    
    66   61   62 1    
    67   62   63 1    
    68   63   64 1    
    69   64   65 1    
    70   65   66 1    
    71   66   67 1    
    72   63   67 1    
    73   66   68 1    
    74   68   69 am   
    75   69   70 am   
    76   67   70 1    
    77   69   71 2    
    78   63   72 1    
    79   67   73 1    
    80   66   74 1    
    81    9   75 1    
    82   10   76 1    
    83   13   77 1    
    84   16   78 1    
    85   17   79 1    
    86   17   80 1    
    87   18   81 1    
    88   18   82 1    
    89   19   83 1    
    90   19   84 1    
    91   20   85 1    
    92   21   86 1    
    93   24   87 1    
    94   28   88 1    
    95   29   89 1    
    96   29   90 1    
    97   30   91 1    
    98   30   92 1    
    99   30   93 1    
   100   31   94 1    
   101   31   95 1    
   102   32   96 1    
   103   36   97 1    
   104   37   98 1    
   105   38   99 1    
   106   39  100 1    
   107   39  101 1    
   108   40  102 1    
   109   41  103 1    
   110   41  104 1    
   111   42  105 1    
   112   42  106 1    
   113   42  107 1    
   114   45  108 1    
   115   45  109 1    
   116   46  110 1    
   117   46  111 1    
   118   48  112 1    
   119   48  113 1    
   120   49  114 1    
   121   49  115 1    
   122   51  116 1    
   123   51  117 1    
   124   52  118 1    
   125   52  119 1    
   126   54  120 1    
   127   54  121 1    
   128   55  122 1    
   129   55  123 1    
   130   56  124 1    
   131   58  125 1    
   132   58  126 1    
   133   59  127 1    
   134   59  128 1    
   135   61  129 1    
   136   61  130 1    
   137   62  131 1    
   138   62  132 1    
   139   65  133 1    
   140   65  134 1    
   141   68  135 1    
   142   70  136 1    
@<TRIPOS>SUBSTRUCTURE
     1 ****        2 TEMP              0 ****  ****    0 ROOT 
@<TRIPOS>NORMAL
@<TRIPOS>FF_PBC
FORCE_FIELD_SETUP_FEATURE Force Field Setup information
v1.0  0 0.000000 0.000000 0.000000 0.000000 0.000000 0.000000 NONE 0 0 0 0 1 0 0 0 0 0 0 0 0
