#	Name:			PISM00169
#	Creating user name:	14062
#	Creation time:		Sun Mar 31 14:13:48 2019

#	Modifying user name:	14062
#	Modification time:	Sun Mar 31 14:41:12 2019

@<TRIPOS>MOLECULE
PISM00169
   37    39     1     2     0
SMALL
GAST_HUCK


@<TRIPOS>ATOM
      1 C1         -4.1013    5.2295   -9.4931 C.3       1 CN          0.1136 
      2 C2         -3.1326    6.4318   -9.4346 C.3       1 CN          0.1146 
      3 C3         -3.1695    6.7575   -7.9225 C.3       1 CN          0.1386 
      4 C4         -3.4171    5.3691   -7.2739 C.3       1 CN          0.1986 
      5 O5         -3.6306    4.4662   -8.3717 O.3       1 CN         -0.3368 
      6 N6         -2.2784    4.9248   -6.4797 N.pl3     1 CN         -0.2133 
      7 C7         -1.4173    4.0020   -6.8287 C.2       1 CN          0.0581 
      8 C8         -0.5040    3.8351   -5.8558 C.2       1 CN          0.0597 
      9 C9         -0.8780    4.8023   -4.7571 C.ar      1 CN          0.0626 
     10 C10        -2.0053    5.4227   -5.2601 C.ar      1 CN          0.1457 
     11 N11        -2.6531    6.3698   -4.5601 N.ar      1 CN         -0.2753 
     12 C12        -2.1828    6.7053   -3.3381 C.ar      1 CN          0.0509 
     13 N13        -1.0791    6.1144   -2.8239 N.ar      1 CN         -0.2725 
     14 C14        -0.3956    5.1623   -3.4965 C.ar      1 CN          0.1181 
     15 N15         0.7018    4.6084   -2.9394 N.pl3     1 CN         -0.3158 
     16 C           0.6513    2.9109   -5.8078 C.2       1 CN          0.1783 
     17 O17         1.3882    2.9799   -4.8391 O.2       1 CN         -0.4013 
     18 O18        -4.2768    7.6341   -7.6315 O.3       1 CN         -0.3836 
     19 O19        -3.5497    7.5702  -10.2129 O.3       1 CN         -0.3864 
     20 C20        -4.0195    4.4040  -10.8062 C.3       1 CN          0.0730 
     21 O21        -4.8401    3.2214  -10.7439 O.3       1 CN         -0.3924 
     22 H1         -5.1374    5.5726   -9.3259 H         1 CN          0.0647 
     23 H2         -2.1134    6.1040   -9.7042 H         1 CN          0.0648 
     24 H3         -2.2264    7.2145   -7.5744 H         1 CN          0.0676 
     25 H4         -4.3240    5.4064   -6.6451 H         1 CN          0.0998 
     26 H5         -1.4477    3.4594   -7.7715 H         1 CN          0.1055 
     27 H6         -2.6995    7.4614   -2.7572 H         1 CN          0.0979 
     28 H7          1.0201    4.9245   -2.0130 H         1 CN          0.1823 
     29 H8          1.2279    3.8716   -3.4352 H         1 CN          0.1823 
     30 H9         -4.2145    8.4513   -8.1183 H         1 CN          0.2101 
     31 H10        -3.5521    7.4069  -11.1506 H         1 CN          0.2100 
     32 H11        -2.9826    4.0671  -10.9590 H         1 CN          0.0584 
     33 H12        -4.3102    5.0248  -11.6702 H         1 CN          0.0584 
     34 H13        -5.7638    3.4074  -10.6079 H         1 CN          0.2095 
     35 N35         0.9159    2.0113   -6.7776 N.am      1 CN         -0.3053 
     36 H14         1.7190    1.4244   -6.6707 H         1 CN          0.1797 
     37 H15         0.3465    1.9044   -7.5881 H         1 CN          0.1797 
@<TRIPOS>BOND
     1    1    2 1    
     2    3    2 1    
     3    4    3 1    
     4    4    5 1    
     5    5    1 1    
     6    6    4 1    
     7    7    6 1    
     8    8    7 2    
     9    8    9 1    
    10    9   10 ar   
    11   10    6 1    
    12   10   11 ar   
    13   11   12 ar   
    14   13   12 ar   
    15   14   13 ar   
    16    9   14 ar   
    17   14   15 1    
    18   16   17 2    
    19   16    8 1    
    20    3   18 1    
    21    2   19 1    
    22    1   20 1    
    23   20   21 1    
    24    1   22 1    
    25    2   23 1    
    26    3   24 1    
    27    4   25 1    
    28    7   26 1    
    29   12   27 1    
    30   15   28 1    
    31   15   29 1    
    32   18   30 1    
    33   19   31 1    
    34   20   32 1    
    35   20   33 1    
    36   21   34 1    
    37   16   35 am   
    38   35   36 1    
    39   35   37 1    
@<TRIPOS>SUBSTRUCTURE
     1 CN         16 PERM              0 ****  ****    0 ROOT 
@<TRIPOS>NORMAL
@<TRIPOS>FF_PBC
FORCE_FIELD_SETUP_FEATURE Force Field Setup information
v1.0  0 0.000000 0.000000 0.000000 0.000000 0.000000 0.000000 NONE 0 0 0 0 1 0 0 0 0 0 0 0 0
@<TRIPOS>RENDERING_ATTRS
ANTIALIASED_LINES 
*
