#	Name:			PISM01040.1
#	Creating user name:	malab
#	Creation time:		Tue Jul 02 17:09:39 2019

#	Modifying user name:	malab
#	Modification time:	Tue Jul 02 17:12:20 2019

@<TRIPOS>MOLECULE
PISM01040.1
   35    37     1     1     0
SMALL
GAST_HUCK


@<TRIPOS>ATOM
      1 O1          8.6364    4.6300    3.8167 O.2       1 <1>        -0.3888 
      2 C2          7.4403    4.4708    3.6422 C.2       1 <1>         0.2428 
      3 C3          6.5058    4.6940    4.7567 C.2       1 <1>         0.0061 
      4 C4          5.1879    4.5270    4.6021 C.2       1 <1>        -0.0333 
      5 C5          4.7013    4.0985    3.2334 C.ar      1 <1>         0.0199 
      6 C6          5.6404    3.9007    2.2127 C.ar      1 <1>         0.1652 
      7 O7          7.0061    4.0953    2.4369 O.3       1 <1>        -0.2186 
      8 C8          4.2242    4.7563    5.7447 C.3       1 <1>        -0.0256 
      9 C9          3.3430    3.8949    2.9612 C.ar      1 <1>        -0.0297 
     10 C10         2.9224    3.4971    1.6901 C.ar      1 <1>         0.1560 
     11 C11         3.8606    3.2845    0.6751 C.ar      1 <1>         0.1659 
     12 C12         5.2153    3.4978    0.9430 C.ar      1 <1>         0.1992 
     13 F13         1.6237    3.3272    1.4629 F         1 <1>        -0.1963 
     14 F14         6.1118    3.3068   -0.0228 F         1 <1>        -0.1957 
     15 O15         3.4684    2.8697   -0.6010 O.3       1 <1>        -0.2663 
     16 C16         2.7007    1.6615   -0.7397 C.3       1 <1>         0.2435 
     17 O17         2.5296    1.4633   -2.1573 O.3       1 <1>        -0.2336 
     18 C18         3.1538    0.3258   -2.4436 C.2       1 <1>         0.2324 
     19 O19         3.2131   -0.1049   -3.5822 O.2       1 <1>        -0.3822 
     20 C20         3.7472   -0.3730   -1.3091 C.2       1 <1>         0.0196 
     21 C21         3.4566    0.4301   -0.2872 C.2       1 <1>         0.0150 
     22 C22         3.7880    0.2201    1.1694 C.3       1 <1>        -0.0224 
     23 C23         4.4971   -1.6774   -1.3067 C.3       1 <1>        -0.0421 
     24 H1          6.9346    5.0007    5.7106 H         1 <1>         0.0410 
     25 H2          3.6713    3.8283    5.9540 H         1 <1>         0.0431 
     26 H3          3.5126    5.5506    5.4741 H         1 <1>         0.0431 
     27 H4          4.7337    5.0616    6.6714 H         1 <1>         0.0431 
     28 H5          2.5890    4.0412    3.7253 H         1 <1>         0.0563 
     29 H6          1.7019    1.7164   -0.2804 H         1 <1>         0.1226 
     30 H7          4.6546    0.8312    1.4573 H         1 <1>         0.0429 
     31 H8          4.0353   -0.8343    1.3625 H         1 <1>         0.0429 
     32 H9          2.9268    0.4918    1.7982 H         1 <1>         0.0429 
     33 H10         5.4660   -1.5525   -0.8006 H         1 <1>         0.0303 
     34 H11         4.6773   -2.0132   -2.3388 H         1 <1>         0.0303 
     35 H12         3.9085   -2.4440   -0.7812 H         1 <1>         0.0303 
@<TRIPOS>BOND
     1    2    1 2    
     2    2    3 1    
     3    3    4 2    
     4    4    5 1    
     5    5    6 ar   
     6    6    7 1    
     7    2    7 1    
     8    4    8 1    
     9    5    9 ar   
    10    9   10 ar   
    11   10   11 ar   
    12   11   12 ar   
    13    6   12 ar   
    14   10   13 1    
    15   12   14 1    
    16   11   15 1    
    17   15   16 1    
    18   16   17 1    
    19   17   18 1    
    20   18   19 2    
    21   18   20 1    
    22   20   21 2    
    23   16   21 1    
    24   21   22 1    
    25   20   23 1    
    26    3   24 1    
    27    8   25 1    
    28    8   26 1    
    29    8   27 1    
    30    9   28 1    
    31   16   29 1    
    32   22   30 1    
    33   22   31 1    
    34   22   32 1    
    35   23   33 1    
    36   23   34 1    
    37   23   35 1    
@<TRIPOS>SUBSTRUCTURE
     1 ****        2 TEMP              0 ****  ****    0 ROOT 
@<TRIPOS>NORMAL
@<TRIPOS>FF_PBC
FORCE_FIELD_SETUP_FEATURE Force Field Setup information
v1.0  0 0.000000 0.000000 0.000000 0.000000 0.000000 0.000000 NONE 0 0 0 0 1 0 0 0 0 0 0 0 0
