#	Name:			PISM01150
#	Creating user name:	14062
#	Creation time:		Sat Apr 06 10:32:07 2019

#	Modifying user name:	14062
#	Modification time:	Sat Apr 06 13:17:21 2019

@<TRIPOS>MOLECULE
PISM01150
   45    45     1     1     0
SMALL
GAST_HUCK


@<TRIPOS>ATOM
      1 C1         -7.2231    4.9806    1.6351 C.3       1 <1>         0.1118 
      2 C2         -7.5003    4.2453    0.2976 C.3       1 <1>         0.1127 
      3 C3         -8.5435    5.1089    2.4459 C.3       1 <1>         0.1117 
      4 C4         -8.3631    5.9289    3.7538 C.3       1 <1>         0.0730 
      5 O5         -9.6162    6.1594    4.4238 O.3       1 <1>        -0.3924 
      6 O6         -6.2071    4.2209    2.3227 O.3       1 <1>        -0.3865 
      7 O7         -6.3017    4.2376   -0.5031 O.3       1 <1>        -0.3865 
      8 C8         -8.6436    4.9493   -0.4802 C.3       1 <1>         0.1212 
      9 O9         -9.5331    5.7857    1.6455 O.3       1 <1>        -0.3527 
     10 O10        -8.9332    4.2594   -1.7109 O.3       1 <1>        -0.3855 
     11 S11       -11.1870    6.1133   -0.3121 S.3       1 <1>        -0.0407 
     12 C12        -9.8856    5.0779    0.4411 C.3       1 <1>         0.1478 
     13 C13       -11.3666    5.3747   -1.9374 C.2       1 <1>         0.1762 
     14 N14       -11.6100    4.1606   -2.2430 N.2       1 <1>        -0.1265 
     15 O15       -11.7468    3.4180   -1.0586 O.3       1 <1>        -0.1040 
     16 S16       -13.1779    3.0436   -0.8061 S.o2      1 <1>         0.0708 
     17 O17       -13.7446    2.0782    0.1917 O.3       1 <1>        -0.6961 
     18 O18       -12.7493    1.8022   -1.4202 O.2       1 <1>        -0.1526 
     19 O19       -12.9424    3.7940    0.4108 O.2       1 <1>        -0.1526 
     20 S20       -11.1941    6.4310   -3.2758 S.o       1 <1>         0.0808 
     21 C21       -12.8842    6.2485   -3.8891 C.3       1 <1>         0.0307 
     22 C22       -13.0892    7.1699   -5.1177 C.3       1 <1>        -0.0414 
     23 C23       -14.5210    7.0291   -5.7008 C.3       1 <1>        -0.0551 
     24 C24       -14.7170    7.9472   -6.9354 C.3       1 <1>        -0.0653 
     25 O25       -11.0563    7.7865   -2.7744 O.2       1 <1>        -0.2492 
     26 H1         -6.8466    5.9882    1.3844 H         1 <1>         0.0647 
     27 H2         -7.8077    3.2069    0.5137 H         1 <1>         0.0647 
     28 H3         -8.9010    4.1044    2.7271 H         1 <1>         0.0646 
     29 H4         -7.9462    6.9174    3.5060 H         1 <1>         0.0584 
     30 H5         -7.6759    5.4241    4.4519 H         1 <1>         0.0584 
     31 H6        -10.0751    5.3562    4.6508 H         1 <1>         0.2095 
     32 H7         -5.8667    4.6424    3.1045 H         1 <1>         0.2100 
     33 H8         -5.5742    3.8204   -0.0493 H         1 <1>         0.2100 
     34 H9         -8.3049    5.9629   -0.7494 H         1 <1>         0.0657 
     35 H10        -9.2875    3.3850   -1.5770 H         1 <1>         0.2100 
     36 H11       -10.2987    4.0924    0.7050 H         1 <1>         0.0768 
     37 H13       -13.5887    6.5177   -3.0857 H         1 <1>         0.0406 
     38 H14       -13.0539    5.1985   -4.1761 H         1 <1>         0.0406 
     39 H15       -12.3480    6.9029   -5.8886 H         1 <1>         0.0274 
     40 H16       -12.9123    8.2150   -4.8151 H         1 <1>         0.0274 
     41 H17       -15.2610    7.2969   -4.9280 H         1 <1>         0.0263 
     42 H18       -14.6950    5.9813   -5.9984 H         1 <1>         0.0263 
     43 H19       -14.5713    9.0030   -6.6580 H         1 <1>         0.0230 
     44 H20       -15.7353    7.8286   -7.3384 H         1 <1>         0.0230 
     45 H21       -13.9954    7.6861   -7.7252 H         1 <1>         0.0230 
@<TRIPOS>BOND
     1    1    2 1    
     2    1    3 1    
     3    9   12 1    
     4    3    4 1    
     5    4    5 1    
     6    1    6 1    
     7    2    8 1    
     8    3    9 1    
     9    2    7 1    
    10    8   10 1    
    11    8   12 1    
    12   12   11 1    
    13   11   13 1    
    14   13   14 2    
    15   14   15 1    
    16   15   16 1    
    17   16   17 1    
    18   16   18 2    
    19   16   19 2    
    20   13   20 1    
    21   20   21 1    
    22   21   22 1    
    23   22   23 1    
    24   23   24 1    
    25   20   25 2    
    26    1   26 1    
    27    2   27 1    
    28    3   28 1    
    29    4   29 1    
    30    4   30 1    
    31    5   31 1    
    32    6   32 1    
    33    7   33 1    
    34    8   34 1    
    35   10   35 1    
    36   12   36 1    
    37   21   37 1    
    38   21   38 1    
    39   22   39 1    
    40   22   40 1    
    41   23   41 1    
    42   23   42 1    
    43   24   43 1    
    44   24   44 1    
    45   24   45 1    
@<TRIPOS>SUBSTRUCTURE
     1 ****        1 TEMP              0 ****  ****    0 ROOT 
@<TRIPOS>NORMAL
@<TRIPOS>FF_PBC
FORCE_FIELD_SETUP_FEATURE Force Field Setup information
v1.0  0 0.000000 0.000000 0.000000 0.000000 0.000000 0.000000 NONE 0 0 0 0 1 0 0 0 0 0 0 0 0
