#	Name:			PISM00231.2
#	Creating user name:	14062
#	Creation time:		Sat Apr 06 01:34:04 2019

#	Modifying user name:	14062
#	Modification time:	Sat Apr 06 01:40:47 2019

@<TRIPOS>MOLECULE
PISM00231.2
   29    30     1     1     0
SMALL
GAST_HUCK


@<TRIPOS>ATOM
      1 C1         -3.2796    1.9587    4.3097 C.3       1 CN          0.0658 
      2 O2         -2.5185    3.1626    4.5211 O.3       1 CN         -0.2793 
      3 C3         -2.3822    4.0223    3.4913 C.2       1 CN          0.2497 
      4 O4         -1.8449    5.0907    3.7300 O.2       1 CN         -0.3691 
      5 C5         -2.8532    3.7214    2.0809 C.3       1 CN          0.1373 
      6 S6         -3.1542    5.2718    1.1599 S.3       1 CN         -0.1311 
      7 C7         -2.2595    4.7875   -0.3465 C.3       1 CN         -0.0006 
      8 C8         -2.1520    3.2504   -0.2390 C.3       1 CN         -0.0084 
      9 C9         -1.7902    2.9687    1.2399 C.3       1 CN          0.1202 
     10 O10        -0.4919    3.5116    1.5403 O.3       1 CN         -0.2750 
     11 C11         0.5985    2.9258    0.8950 C.ar      1 CN          0.2342 
     12 N12         0.5177    1.6605    0.4307 N.ar      1 CN         -0.2356 
     13 C13         1.5707    1.0809   -0.1819 C.ar      1 CN          0.0391 
     14 C14         2.7610    1.7975   -0.3389 C.ar      1 CN          0.0411 
     15 N15         2.8424    3.0635    0.1197 N.ar      1 CN         -0.2476 
     16 C16         1.7848    3.6465    0.7244 C.ar      1 CN          0.2290 
     17 C           1.8792    5.0077    1.1854 C.1       1 CN          0.1241 
     18 N           1.9562    6.1037    1.5519 N.1       1 CN         -0.3253 
     19 H1         -2.8585    1.3151    3.5250 H         1 CN          0.0577 
     20 H2         -4.3385    2.1768    4.1021 H         1 CN          0.0577 
     21 H3         -3.2389    1.3973    5.2549 H         1 CN          0.0577 
     22 H4         -3.8193    3.1999    2.0473 H         1 CN          0.0699 
     23 H5         -1.2617    5.2540   -0.3194 H         1 CN          0.0379 
     24 H6         -2.7917    5.1138   -1.2536 H         1 CN          0.0379 
     25 H7         -1.4058    2.8533   -0.9450 H         1 CN          0.0305 
     26 H8         -3.1275    2.7920   -0.4722 H         1 CN          0.0305 
     27 H9         -1.8038    1.8885    1.4580 H         1 CN          0.0703 
     28 H10         1.4873    0.0629   -0.5482 H         1 CN          0.0957 
     29 H11         3.6187    1.3450   -0.8259 H         1 CN          0.0857 
@<TRIPOS>BOND
     1    2    1 1    
     2    3    2 1    
     3    3    4 2    
     4    5    3 1    
     5    5    6 1    
     6    6    7 1    
     7    8    7 1    
     8    9    8 1    
     9    9    5 1    
    10   10    9 1    
    11   11   10 1    
    12   11   12 ar   
    13   12   13 ar   
    14   14   13 ar   
    15   15   14 ar   
    16   16   15 ar   
    17   16   11 ar   
    18   17   18 3    
    19   17   16 1    
    20    1   19 1    
    21    1   20 1    
    22    1   21 1    
    23    5   22 1    
    24    7   23 1    
    25    7   24 1    
    26    8   25 1    
    27    8   26 1    
    28    9   27 1    
    29   13   28 1    
    30   14   29 1    
@<TRIPOS>SUBSTRUCTURE
     1 CN         17 PERM              0 ****  ****    0 ROOT 
@<TRIPOS>NORMAL
@<TRIPOS>FF_PBC
FORCE_FIELD_SETUP_FEATURE Force Field Setup information
v1.0  0 0.000000 0.000000 0.000000 0.000000 0.000000 0.000000 NONE 0 0 0 0 1 0 0 0 0 0 0 0 0
