#	Name:			PISM00649
#	Creating user name:	baoopengkun
#	Creation time:		Sat Jan 12 19:29:01 2019

#	Modifying user name:	baoopengkun
#	Modification time:	Sat Jan 12 19:33:49 2019

@<TRIPOS>MOLECULE
PISM00649
   30    30     1     1     0
SMALL
GAST_HUCK


@<TRIPOS>ATOM
      1 Cl1       -10.9345   -1.2390   -0.2289 Cl        1 <1>        -0.0722 
      2 C2         -9.1920   -1.0780   -0.1987 C.ar      1 <1>         0.0547 
      3 C3         -8.4046   -2.0272    0.4578 C.ar      1 <1>         0.0116 
      4 N4         -7.0613   -1.9104    0.4651 N.ar      1 <1>        -0.2802 
      5 C5         -6.4336   -0.8966   -0.1669 C.ar      1 <1>         0.1351 
      6 C6         -7.1785    0.1139   -0.7862 C.ar      1 <1>        -0.0110 
      7 C7         -8.5717    0.0025   -0.8279 C.ar      1 <1>        -0.0388 
      8 N8         -5.0803   -0.9142   -0.1397 N.pl3     1 <1>        -0.2237 
      9 C9         -4.3430   -0.5455   -1.1548 C.2       1 <1>         0.2041 
     10 O10        -4.8072   -0.1455   -2.2103 O.2       1 <1>        -0.3781 
     11 C11        -2.3266    0.5377   -0.1339 C.3       1 <1>        -0.0332 
     12 C12         1.2541   -0.4609    1.0741 C.2       1 <1>         0.2312 
     13 O13         2.0550   -1.2547    0.6088 O.2       1 <1>        -0.3706 
     14 O14         1.6348    0.5984    1.7877 O.3       1 <1>        -0.2927 
     15 C15        -2.8392   -0.6255   -1.0244 C.3       1 <1>         0.0434 
     16 C16        -0.2306   -0.6145    0.8759 C.3       1 <1>         0.0487 
     17 C17        -0.7804    0.5612    0.0234 C.3       1 <1>        -0.0326 
     18 H1         -8.8718   -2.8644    0.9667 H         1 <1>         0.0792 
     19 H2         -6.6961    0.9825   -1.2188 H         1 <1>         0.0624 
     20 H3         -9.1671    0.7482   -1.3439 H         1 <1>         0.0708 
     21 H4         -4.6311   -1.2814    0.7084 H         1 <1>         0.2154 
     22 H5         -2.7897    0.4853    0.8643 H         1 <1>         0.0292 
     23 H6         -2.6478    1.4846   -0.6007 H         1 <1>         0.0292 
     24 H7          2.5817    0.6317    1.8654 H         1 <1>         0.2539 
     25 H8         -2.3802   -0.5546   -2.0238 H         1 <1>         0.0511 
     26 H9         -2.5785   -1.6068   -0.6005 H         1 <1>         0.0511 
     27 H10        -0.7064   -0.6194    1.8689 H         1 <1>         0.0518 
     28 H11        -0.4191   -1.5864    0.3953 H         1 <1>         0.0518 
     29 H12        -0.5034    1.5050    0.5220 H         1 <1>         0.0292 
     30 H13        -0.3007    0.5509   -0.9683 H         1 <1>         0.0292 
@<TRIPOS>BOND
     1    2    1 1    
     2    3    2 ar   
     3    4    3 ar   
     4    5    4 ar   
     5    5    6 ar   
     6    6    7 ar   
     7    7    2 ar   
     8    8    5 1    
     9    9    8 1    
    10    9   10 2    
    11   11   15 1    
    12   17   11 1    
    13   12   13 2    
    14   12   14 1    
    15   15    9 1    
    16   16   12 1    
    17   16   17 1    
    18    3   18 1    
    19    6   19 1    
    20    7   20 1    
    21    8   21 1    
    22   11   22 1    
    23   11   23 1    
    24   14   24 1    
    25   15   25 1    
    26   15   26 1    
    27   16   27 1    
    28   16   28 1    
    29   17   29 1    
    30   17   30 1    
@<TRIPOS>SUBSTRUCTURE
     1 ****       12 TEMP              0 ****  ****    0 ROOT 
@<TRIPOS>NORMAL
@<TRIPOS>FF_PBC
FORCE_FIELD_SETUP_FEATURE Force Field Setup information
v1.0  0 0.000000 0.000000 0.000000 0.000000 0.000000 0.000000 NONE 0 0 0 0 1 0 0 0 0 0 0 0 0
