#	Name:			PISM00040
#	Creating user name:	baoopengkun
#	Creation time:		Sat Nov 17 21:26:40 2018

#	Modifying user name:	baoopengkun
#	Modification time:	Sat Nov 17 21:30:15 2018

@<TRIPOS>MOLECULE
PISM00040
   41    42     1     2     0
SMALL
GAST_HUCK


@<TRIPOS>ATOM
      1 C1          7.0406   -5.0505    9.6181 C.ar      1 <1>        -0.0405 
      2 C2          5.7709   -5.0035   10.2000 C.ar      1 <1>        -0.0423 
      3 C3          5.5447   -4.2018   11.3241 C.ar      1 <1>         0.0370 
      4 C4          6.6080   -3.4836   11.8816 C.ar      1 <1>        -0.0105 
      5 C5          7.8827   -3.5226   11.3057 C.ar      1 <1>         0.0944 
      6 C6          8.0871   -4.2975   10.1577 C.ar      1 <1>        -0.0101 
      7 C7          4.1514   -4.0989   11.9555 C.3       1 <1>         0.3736 
      8 N8          8.8975   -2.8091   11.8562 N.pl3     1 <1>        -0.2064 
      9 C9         10.0883   -3.3156   12.0283 C.2       1 <1>         0.2487 
     10 C10        11.0829   -2.3511   12.6264 C.3       1 <1>         0.2293 
     11 S11        10.4013   -0.7502   12.1152 S.3       1 <1>        -0.0750 
     12 C12         8.7201   -1.4140   12.2310 C.3       1 <1>         0.1001 
     13 O13        11.0284   -2.3264   14.0661 O.3       1 <1>        -0.2273 
     14 C14        11.5693   -3.4086   14.6383 C.2       1 <1>         0.3235 
     15 N15        11.4121   -3.4168   15.9804 N.am      1 <1>        -0.2571 
     16 C16        11.9138   -4.5145   16.8171 C.3       1 <1>         0.0465 
     17 C17        11.2222   -5.8497   16.4188 C.3       1 <1>        -0.0397 
     18 C18        11.5683   -4.2056   18.3055 C.3       1 <1>        -0.0397 
     19 C19        13.4590   -4.6375   16.6875 C.3       1 <1>        -0.0397 
     20 F20         3.9167   -2.8165   12.3448 F         1 <1>        -0.2207 
     21 F21         4.0990   -4.9098   13.0452 F         1 <1>        -0.2207 
     22 F22         3.1827   -4.4707   11.0755 F         1 <1>        -0.2207 
     23 O23        10.4012   -4.4590   11.7394 O.2       1 <1>        -0.3751 
     24 O24        12.1390   -4.2660   13.9860 O.2       1 <1>        -0.3774 
     25 H1          7.2141   -5.6715    8.7441 H         1 <1>         0.0671 
     26 H2          4.9644   -5.5926    9.7745 H         1 <1>         0.0764 
     27 H3          6.4388   -2.8950   12.7763 H         1 <1>         0.0743 
     28 H4          9.0576   -4.3147    9.6727 H         1 <1>         0.0782 
     29 H5         12.0968   -2.4752   12.2139 H         1 <1>         0.1023 
     30 H6          8.0500   -0.8646   11.5511 H         1 <1>         0.0677 
     31 H7          8.3638   -1.3261   13.2693 H         1 <1>         0.0677 
     32 H8         10.9308   -2.6521   16.4111 H         1 <1>         0.1873 
     33 H9         11.5172   -6.6580   17.1053 H         1 <1>         0.0254 
     34 H10        11.4910   -6.1608   15.3996 H         1 <1>         0.0254 
     35 H11        10.1291   -5.7303   16.4649 H         1 <1>         0.0254 
     36 H12        11.9244   -5.0071   18.9710 H         1 <1>         0.0254 
     37 H13        10.4791   -4.1098   18.4346 H         1 <1>         0.0254 
     38 H14        12.0396   -3.2616   18.6199 H         1 <1>         0.0254 
     39 H15        13.8475   -5.3886   17.3922 H         1 <1>         0.0254 
     40 H16        13.9288   -3.6680   16.9126 H         1 <1>         0.0254 
     41 H17        13.7631   -4.9409   15.6761 H         1 <1>         0.0254 
@<TRIPOS>BOND
     1    2    1 ar   
     2    2    3 ar   
     3    3    4 ar   
     4    4    5 ar   
     5    5    6 ar   
     6    1    6 ar   
     7    3    7 1    
     8    5    8 1    
     9    8    9 1    
    10    9   10 1    
    11   10   11 1    
    12   11   12 1    
    13    8   12 1    
    14   10   13 1    
    15   13   14 1    
    16   14   15 am   
    17   15   16 1    
    18   16   17 1    
    19   16   18 1    
    20   16   19 1    
    21    7   20 1    
    22    7   21 1    
    23    7   22 1    
    24    9   23 2    
    25   14   24 2    
    26    1   25 1    
    27    2   26 1    
    28    4   27 1    
    29    6   28 1    
    30   10   29 1    
    31   12   30 1    
    32   12   31 1    
    33   15   32 1    
    34   17   33 1    
    35   17   34 1    
    36   17   35 1    
    37   18   36 1    
    38   18   37 1    
    39   18   38 1    
    40   19   39 1    
    41   19   40 1    
    42   19   41 1    
@<TRIPOS>SUBSTRUCTURE
     1 ****        2 TEMP              0 ****  ****    0 ROOT 
@<TRIPOS>NORMAL
@<TRIPOS>FF_PBC
FORCE_FIELD_SETUP_FEATURE Force Field Setup information
v1.0  0 0.000000 0.000000 0.000000 0.000000 0.000000 0.000000 NONE 0 0 0 0 1 0 0 0 0 0 0 0 0
@<TRIPOS>RENDERING_ATTRS
ANTIALIASED_LINES 
*
