#	Name:			PISM00709
#	Creating user name:	baoopengkun
#	Creation time:		Sun Jan 20 21:34:04 2019

#	Modifying user name:	baoopengkun
#	Modification time:	Sun Jan 20 21:37:14 2019

@<TRIPOS>MOLECULE
PISM00709
   83    86     1     1     0
SMALL
GAST_HUCK


@<TRIPOS>ATOM
      1 C1          1.4758    3.5024    7.5807 C.3       1 <1>        -0.0164 
      2 C2          1.0108    2.2033    8.3046 C.3       1 <1>         0.0819 
      3 C3          2.1961    1.4274    8.9475 C.3       1 <1>         0.0834 
      4 C4          3.0730    2.3556    9.8314 C.3       1 <1>        -0.0041 
      5 C5          3.5267    3.6139    9.0379 C.3       1 <1>         0.0567 
      6 C6          2.3401    4.4615    8.4625 C.3       1 <1>        -0.0068 
      7 C7          2.8877    5.6960    7.6317 C.3       1 <1>        -0.0283 
      8 C8          4.2011    5.4057    6.8291 C.3       1 <1>        -0.0140 
      9 C9          5.4642    5.4373    7.7611 C.3       1 <1>         0.0342 
     10 N10         5.2762    5.3698    9.2186 N.am      1 <1>        -0.2864 
     11 C11         4.4350    4.5093    9.8325 C.2       1 <1>         0.1797 
     12 O12         4.3976    4.4454   11.0500 O.2       1 <1>        -0.3968 
     13 C13         1.8305    6.3732    6.7022 C.3       1 <1>        -0.0487 
     14 C14         2.3198    7.7484    6.1413 C.3       1 <1>        -0.0468 
     15 C15         3.8245    7.7758    5.6968 C.3       1 <1>        -0.0257 
     16 C16         4.2897    6.3002    5.5426 C.3       1 <1>        -0.0304 
     17 C17         5.6154    6.3470    4.7424 C.3       1 <1>        -0.0491 
     18 C18         5.4508    7.6152    3.8548 C.3       1 <1>        -0.0491 
     19 C19         4.0922    8.2877    4.2353 C.3       1 <1>        -0.0304 
     20 O20         0.3506    1.3280    7.3697 O.3       1 <1>        -0.3892 
     21 O21         2.9839    0.7031    7.9823 O.3       1 <1>        -0.3891 
     22 H22         4.1585    3.1863    8.2523 H         1 <1>         0.0544 
     23 C23         1.4655    5.0256    9.6381 C.3       1 <1>        -0.0569 
     24 C24         4.6879    8.5841    6.7185 C.3       1 <1>        -0.0590 
     25 C25         4.0715    9.8292    3.9346 C.3       1 <1>        -0.0120 
     26 C26         4.4319   10.0958    2.4300 C.3       1 <1>         0.0841 
     27 C27         4.3674   11.5932    1.9848 C.3       1 <1>         0.0841 
     28 C28         5.2183   11.8574    0.6857 C.3       1 <1>        -0.0130 
     29 C29         6.6124   12.5050    1.0140 C.3       1 <1>        -0.0417 
     30 C30         7.4533   12.8131   -0.2615 C.3       1 <1>        -0.0623 
     31 C31         7.4746   11.6183    1.9620 C.3       1 <1>        -0.0623 
     32 C32         2.7206   10.4885    4.3409 C.3       1 <1>        -0.0597 
     33 O33         3.6317    9.3043    1.5354 O.3       1 <1>        -0.3890 
     34 O34         2.9632   11.8831    1.8106 O.3       1 <1>        -0.3890 
     35 C35         4.4311   12.6936   -0.3688 C.3       1 <1>        -0.0597 
     36 H1          0.5640    4.0204    7.2462 H         1 <1>         0.0298 
     37 H2          2.0385    3.2108    6.6824 H         1 <1>         0.0298 
     38 H3          0.2869    2.4478    9.1005 H         1 <1>         0.0619 
     39 H4          1.7785    0.6322    9.5892 H         1 <1>         0.0620 
     40 H5          3.9603    1.7841   10.1529 H         1 <1>         0.0318 
     41 H6          2.5333    2.6301   10.7487 H         1 <1>         0.0318 
     42 H7          3.1460    6.4829    8.3550 H         1 <1>         0.0311 
     43 H8          4.1285    4.3928    6.4003 H         1 <1>         0.0326 
     44 H9          6.0093    6.3723    7.5846 H         1 <1>         0.0523 
     45 H10         6.1589    4.6326    7.4671 H         1 <1>         0.0523 
     46 H11         5.8465    5.9421    9.8147 H         1 <1>         0.1851 
     47 H12         0.8820    6.5632    7.2259 H         1 <1>         0.0268 
     48 H13         1.5890    5.6949    5.8692 H         1 <1>         0.0268 
     49 H14         2.1534    8.5032    6.9273 H         1 <1>         0.0271 
     50 H15         1.6546    8.0049    5.3016 H         1 <1>         0.0271 
     51 H16         3.5939    5.8527    4.8066 H         1 <1>         0.0310 
     52 H17         5.7617    5.4305    4.1448 H         1 <1>         0.0268 
     53 H18         6.5030    6.4571    5.3807 H         1 <1>         0.0268 
     54 H19         5.4739    7.3459    2.7850 H         1 <1>         0.0268 
     55 H20         6.2907    8.3031    4.0485 H         1 <1>         0.0268 
     56 H21         3.3174    7.8443    3.5861 H         1 <1>         0.0310 
     57 H23        -0.4161    1.7142    6.9578 H         1 <1>         0.2099 
     58 H24         3.3254    1.2303    7.2710 H         1 <1>         0.2099 
     59 H25         2.0578    5.6902   10.2850 H         1 <1>         0.0237 
     60 H26         1.0408    4.2574   10.2920 H         1 <1>         0.0237 
     61 H27         0.6099    5.6035    9.2667 H         1 <1>         0.0237 
     62 H28         5.7555    8.5745    6.4599 H         1 <1>         0.0235 
     63 H29         4.3689    9.6342    6.7546 H         1 <1>         0.0235 
     64 H30         4.5773    8.2028    7.7406 H         1 <1>         0.0235 
     65 H31         4.8600   10.3161    4.5316 H         1 <1>         0.0327 
     66 H32         5.4581    9.7379    2.2756 H         1 <1>         0.0622 
     67 H33         4.7390   12.2245    2.8098 H         1 <1>         0.0622 
     68 H34         5.4032   10.8928    0.1830 H         1 <1>         0.0326 
     69 H35         6.4368   13.4679    1.5250 H         1 <1>         0.0299 
     70 H36         8.4694   13.1420    0.0063 H         1 <1>         0.0232 
     71 H37         7.0109   13.6261   -0.8558 H         1 <1>         0.0232 
     72 H38         7.5376   11.9128   -0.8892 H         1 <1>         0.0232 
     73 H39         7.6648   10.6395    1.4958 H         1 <1>         0.0232 
     74 H40         6.9959   11.4626    2.9391 H         1 <1>         0.0232 
     75 H41         8.4466   12.0955    2.1618 H         1 <1>         0.0232 
     76 H42         1.8880   10.0754    3.7534 H         1 <1>         0.0233 
     77 H43         2.7465   11.5778    4.2002 H         1 <1>         0.0233 
     78 H44         2.5029   10.3359    5.4039 H         1 <1>         0.0233 
     79 H45         2.7342    9.6210    1.5112 H         1 <1>         0.2099 
     80 H46         2.7663   12.8089    1.7056 H         1 <1>         0.2099 
     81 H47         4.2905   13.7262   -0.0148 H         1 <1>         0.0233 
     82 H48         3.4467   12.2438   -0.5714 H         1 <1>         0.0233 
     83 H49         4.9486   12.7228   -1.3386 H         1 <1>         0.0233 
@<TRIPOS>BOND
     1    2    1 1    
     2    2    3 1    
     3    3    4 1    
     4    4    5 1    
     5    5    6 1    
     6    1    6 1    
     7    6    7 1    
     8    7    8 1    
     9    8    9 1    
    10    9   10 1    
    11   10   11 am   
    12   11   12 2    
    13    5   11 1    
    14    7   13 1    
    15   13   14 1    
    16   14   15 1    
    17   15   16 1    
    18    8   16 1    
    19   16   17 1    
    20   17   18 1    
    21   18   19 1    
    22   15   19 1    
    23    2   20 1    
    24    3   21 1    
    25    5   22 1    
    26    6   23 1    
    27   15   24 1    
    28   19   25 1    
    29   25   26 1    
    30   26   27 1    
    31   27   28 1    
    32   28   29 1    
    33   29   30 1    
    34   29   31 1    
    35   25   32 1    
    36   26   33 1    
    37   27   34 1    
    38   28   35 1    
    39    1   36 1    
    40    1   37 1    
    41    2   38 1    
    42    3   39 1    
    43    4   40 1    
    44    4   41 1    
    45    7   42 1    
    46    8   43 1    
    47    9   44 1    
    48    9   45 1    
    49   10   46 1    
    50   13   47 1    
    51   13   48 1    
    52   14   49 1    
    53   14   50 1    
    54   16   51 1    
    55   17   52 1    
    56   17   53 1    
    57   18   54 1    
    58   18   55 1    
    59   19   56 1    
    60   20   57 1    
    61   21   58 1    
    62   23   59 1    
    63   23   60 1    
    64   23   61 1    
    65   24   62 1    
    66   24   63 1    
    67   24   64 1    
    68   25   65 1    
    69   26   66 1    
    70   27   67 1    
    71   28   68 1    
    72   29   69 1    
    73   30   70 1    
    74   30   71 1    
    75   30   72 1    
    76   31   73 1    
    77   31   74 1    
    78   31   75 1    
    79   32   76 1    
    80   32   77 1    
    81   32   78 1    
    82   33   79 1    
    83   34   80 1    
    84   35   81 1    
    85   35   82 1    
    86   35   83 1    
@<TRIPOS>SUBSTRUCTURE
     1 ****        2 TEMP              0 ****  ****    0 ROOT 
@<TRIPOS>NORMAL
@<TRIPOS>FF_PBC
FORCE_FIELD_SETUP_FEATURE Force Field Setup information
v1.0  0 0.000000 0.000000 0.000000 0.000000 0.000000 0.000000 NONE 0 0 0 0 1 0 0 0 0 0 0 0 0
