#	Name:			M00653
#	Creating user name:	XiyangLee
#	Creation time:		Tue Aug 31 18:16:45 2021

#	Modifying user name:	XiyangLee
#	Modification time:	Tue Aug 31 18:17:21 2021

@<TRIPOS>MOLECULE
M00653
   27    27     1     1     1
SMALL
GAST_HUCK
****
From 3DB ct
@<TRIPOS>ATOM
      1 Cl         12.9199    2.0727    0.0321 Cl        1 <1>        -0.0753 
      2 C          11.3406    1.3222   -0.0741 C.ar      1 <1>         0.0509 
      3 C          10.2717    2.0055   -0.6588 C.ar      1 <1>        -0.0424 
      4 H          10.4170    3.0039   -1.0584 H         1 <1>         0.0697 
      5 C           9.0183    1.3910   -0.7268 C.ar      1 <1>        -0.0126 
      6 H           8.2016    1.8990   -1.2259 H         1 <1>         0.0598 
      7 C           8.8561    0.1215   -0.1593 C.ar      1 <1>         0.1394 
      8 N           7.6020   -0.5423   -0.1065 N.am      1 <1>        -0.2176 
      9 H           7.6181   -1.5411   -0.1167 H         1 <1>         0.2314 
     10 C           6.4256    0.1131    0.0207 C.2       1 <1>         0.2104 
     11 O           6.3392    1.3243    0.1266 O.2       1 <1>        -0.3825 
     12 C           5.1538   -0.6990    0.0484 C.3       1 <1>         0.0622 
     13 H           5.1920   -1.3819    0.9118 H         1 <1>         0.0535 
     14 H           5.1012   -1.2977   -0.8748 H         1 <1>         0.0535 
     15 C           3.8909    0.1958    0.1541 C.3       1 <1>         0.0661 
     16 H           3.8470    0.8863   -0.7027 H         1 <1>         0.0544 
     17 H           3.9241    0.7876    1.0824 H         1 <1>         0.0544 
     18 C           2.6321   -0.6273    0.1617 C.2       1 <1>         0.2358 
     19 O           1.4939    0.0767    0.2276 O.3       1 <1>        -0.2801 
     20 C           0.3089   -0.7432    0.2254 C.3       1 <1>         0.0658 
     21 H          -0.5641   -0.0765    0.2815 H         1 <1>         0.0577 
     22 H           0.2351   -1.3360   -0.7006 H         1 <1>         0.0577 
     23 H           0.2877   -1.4184    1.0960 H         1 <1>         0.0577 
     24 O           2.6662   -1.8467    0.1102 O.2       1 <1>        -0.3703 
     25 N           9.9143   -0.5382    0.3549 N.ar      1 <1>        -0.2842 
     26 C          11.1352    0.0325    0.4231 C.ar      1 <1>         0.0070 
     27 H          11.9579   -0.5166    0.8675 H         1 <1>         0.0781 
@<TRIPOS>BOND
     1    1    2 1    
     2    2    3 ar   
     3    3    4 1    
     4    3    5 ar   
     5    5    6 1    
     6    5    7 ar   
     7    7    8 1    
     8    8    9 1    
     9    8   10 am   
    10   10   11 2    
    11   10   12 1    
    12   12   13 1    
    13   12   14 1    
    14   12   15 1    
    15   15   16 1    
    16   15   17 1    
    17   15   18 1    
    18   18   19 1    
    19   19   20 1    
    20   20   21 1    
    21   20   22 1    
    22   20   23 1    
    23   18   24 2    
    24    7   25 ar   
    25   25   26 ar   
    26   26   27 1    
    27   26    2 ar   
@<TRIPOS>SUBSTRUCTURE
     1 ****        1 TEMP              0 ****  ****    0 ROOT 
@<TRIPOS>SET
UNITY_3DHIT     STATIC     ATOMS    <user>   **** Atoms matching 3D or FLEX Search
0
@<TRIPOS>NORMAL
@<TRIPOS>FF_PBC
FORCE_FIELD_SETUP_FEATURE Force Field Setup information
v1.0  0 0.000000 0.000000 0.000000 0.000000 0.000000 0.000000 NONE 0 0 0 0 1 0 0 0 0 0 0 0 0
