#	Name:			PISM01182.1
#	Creating user name:	malab
#	Creation time:		Thu Apr 11 00:22:40 2019

#	Modifying user name:	malab
#	Modification time:	Thu Apr 11 00:33:45 2019

@<TRIPOS>MOLECULE
PISM01182.1
  123   126     1     2     0
SMALL
GAST_HUCK


@<TRIPOS>ATOM
      1 C1         33.3788   16.1342  -20.0634 C.3       1 <1>        -0.0507 
      2 C2         33.2759   17.6568  -20.3631 C.3       1 <1>         0.0000 
      3 C3         34.6357   15.8538  -19.1923 C.3       1 <1>         0.0000 
      4 H1         33.5096   15.6054  -21.0238 H         1 <1>         0.0000 
      5 H2         34.2265   18.0299  -20.7747 H         1 <1>         0.0000 
      6 H3         33.0530   18.2151  -19.4414 H         1 <1>         0.0000 
      7 C7         32.1079   15.5707  -19.3569 C.3       1 <1>        -0.0528 
      8 C8         30.8064   15.7468  -20.1873 C.3       1 <1>        -0.0530 
      9 C9         29.6052   15.0032  -19.5402 C.3       1 <1>        -0.0531 
     10 C10        28.3012   15.2594  -20.3439 C.3       1 <1>        -0.0531 
     11 C11        27.0877   14.5115  -19.7279 C.3       1 <1>        -0.0531 
     12 C12        25.7948   14.7896  -20.5409 C.3       1 <1>        -0.0531 
     13 C13        24.5752   14.0330  -19.9480 C.3       1 <1>        -0.0529 
     14 C14        23.2849   14.3450  -20.7535 C.3       1 <1>        -0.0505 
     15 C15        22.0605   13.5595  -20.2100 C.3       1 <1>        -0.0396 
     16 C16        20.7774   13.9116  -21.0088 C.3       1 <1>        -0.0148 
     17 C17        19.6145   13.0620  -20.5518 C.2       1 <1>        -0.0596 
     18 C18        18.4730   13.5643  -20.0616 C.2       1 <1>        -0.0030 
     19 C19        17.3356   12.7194  -19.6352 C.2       1 <1>         0.1764 
     20 O20        17.4536   11.5078  -19.7241 O.2       1 <1>        -0.4012 
     21 N21        16.2084   13.2984  -19.1561 N.am      1 <1>        -0.2811 
     22 C22        15.0771   12.4776  -18.7197 C.3       1 <1>         0.1197 
     23 C23        14.3705   11.6791  -19.8417 C.3       1 <1>         0.1108 
     24 O24        13.5068   10.7312  -19.1830 O.3       1 <1>        -0.3867 
     25 C25        13.9976   13.3206  -17.9908 C.3       1 <1>         0.1876 
     26 O26        14.7223   14.1895  -17.0980 O.3       1 <1>        -0.3180 
     27 C27        13.9170   14.8058  -16.0763 C.3       1 <1>         0.1879 
     28 C28        13.5247   13.8624  -14.8993 C.3       1 <1>         0.1211 
     29 N29        12.0916   13.7027  -14.6193 N.am      1 <1>        -0.2766 
     30 C30        11.1996   14.7182  -14.4544 C.2       1 <1>         0.1733 
     31 O31        10.0360   14.4481  -14.1971 O.2       1 <1>        -0.3974 
     32 C32        11.4971   16.1965  -14.5829 C.3       1 <1>         0.0257 
     33 C33        14.2949   14.1870  -13.5921 C.3       1 <1>         0.1111 
     34 O34        14.1594   13.0755  -12.6897 O.3       1 <1>        -0.3867 
     35 C35        15.7817   14.4218  -13.9445 C.3       1 <1>         0.1116 
     36 O36        16.5183   14.6304  -12.7260 O.3       1 <1>        -0.3865 
     37 C37        15.8764   15.6463  -14.8987 C.3       1 <1>         0.1130 
     38 O38        14.6355   15.9466  -15.5757 O.3       1 <1>        -0.3407 
     39 C39        17.1138   15.5716  -15.8369 C.3       1 <1>         0.0730 
     40 O40        17.1795   14.3283  -16.5562 O.3       1 <1>        -0.3924 
     41 C41        13.5437   12.6011  -20.7862 C.3       1 <1>         0.1095 
     42 O42        12.2695   11.9481  -20.9616 O.3       1 <1>        -0.3866 
     43 C43        12.3146   14.8435  -21.0245 C.3       1 <1>         0.0047 
     44 C44        13.4126   14.0616  -20.2462 C.3       1 <1>         0.0925 
     45 O45        13.0893   14.0642  -18.8404 O.3       1 <1>        -0.3429 
     46 C46        12.4111   16.3962  -20.9920 C.3       1 <1>         0.0864 
     47 C47        12.3892   17.0244  -19.5749 C.3       1 <1>         0.1161 
     48 O48        13.6708   16.9606  -18.9370 O.3       1 <1>        -0.3389 
     49 C49        13.6759   17.9201  -17.8653 C.3       1 <1>         0.1969 
     50 N50        15.0225   18.3579  -17.4810 N.pl3     1 <1>        -0.1665 
     51 C51        15.9734   18.3526  -18.3847 C.2       1 <1>         0.0550 
     52 C52        17.2220   18.7420  -18.1098 C.2       1 <1>         0.0141 
     53 C53        17.5123   19.1853  -16.7433 C.2       1 <1>         0.1916 
     54 O54        18.6383   19.5524  -16.4492 O.2       1 <1>        -0.4051 
     55 N55        16.4868   19.1586  -15.8715 N.am      1 <1>        -0.1858 
     56 C56        15.2525   18.7502  -16.2471 C.2       1 <1>         0.3248 
     57 O57        14.3568   18.7589  -15.4149 O.2       1 <1>        -0.3766 
     58 O58        11.2922   16.9529  -21.7095 O.3       1 <1>        -0.3891 
     59 C59        12.1562   18.5554  -19.6528 C.3       1 <1>         0.1145 
     60 C60        12.8317   19.1106  -18.3765 C.3       1 <1>         0.1357 
     61 O61        11.8674   19.4924  -17.3803 O.3       1 <1>        -0.3839 
     62 O62        10.7604   18.8945  -19.6919 O.3       1 <1>        -0.3864 
     63 H4         32.4921   17.8680  -21.1052 H         1 <1>         0.0000 
     64 H5         34.7410   14.7745  -19.0016 H         1 <1>         0.0000 
     65 H6         34.5575   16.3753  -18.2258 H         1 <1>         0.0000 
     66 H7         35.5470   16.2001  -19.7041 H         1 <1>         0.0000 
     67 H8         31.9797   16.0598  -18.3778 H         1 <1>         0.0000 
     68 H9         32.2598   14.4929  -19.1811 H         1 <1>         0.0000 
     69 H10        30.9644   15.3554  -21.2059 H         1 <1>         0.0000 
     70 H11        30.5510   16.8158  -20.2582 H         1 <1>         0.0000 
     71 H12        29.4682   15.3529  -18.5038 H         1 <1>         0.0000 
     72 H13        29.8126   13.9205  -19.5168 H         1 <1>         0.0000 
     73 H14        28.4445   14.9234  -21.3845 H         1 <1>         0.0000 
     74 H15        28.0883   16.3415  -20.3565 H         1 <1>         0.0000 
     75 H16        26.9417   14.8430  -18.6868 H         1 <1>         0.0000 
     76 H17        27.2890   13.4279  -19.7209 H         1 <1>         0.0000 
     77 H18        25.9453   14.4708  -21.5856 H         1 <1>         0.0000 
     78 H19        25.5894   15.8727  -20.5371 H         1 <1>         0.0000 
     79 H20        24.4310   14.3336  -18.8974 H         1 <1>         0.0000 
     80 H21        24.7731   12.9488  -19.9742 H         1 <1>         0.0000 
     81 H22        23.4431   14.0753  -21.8108 H         1 <1>         0.0000 
     82 H23        23.0764   15.4262  -20.6999 H         1 <1>         0.0000 
     83 H24        21.8996   13.8014  -19.1464 H         1 <1>         0.0000 
     84 H25        22.2626   12.4786  -20.2921 H         1 <1>         0.0000 
     85 H26        20.9392   13.7074  -22.0790 H         1 <1>         0.0000 
     86 H27        20.5638   14.9869  -20.8980 H         1 <1>         0.0000 
     87 H28        19.7337   11.9814  -20.6405 H         1 <1>         0.0000 
     88 H29        18.3654   14.6452  -19.9712 H         1 <1>         0.0000 
     89 H30        16.1595   14.2915  -19.0366 H         1 <1>         0.0000 
     90 H31        15.4833   11.7614  -17.9827 H         1 <1>         0.0000 
     91 H32        15.1081   11.0969  -20.4207 H         1 <1>         0.0000 
     92 H33        13.0172   10.1943  -19.7980 H         1 <1>         0.0000 
     93 H34        13.3463   12.6275  -17.4346 H         1 <1>         0.0000 
     94 H35        13.0040   15.1727  -16.5605 H         1 <1>         0.0000 
     95 H36        13.9136   12.8691  -15.1827 H         1 <1>         0.0000 
     96 H37        11.7542   12.7651  -14.4955 H         1 <1>         0.0000 
     97 H38        10.8618   16.7565  -13.8787 H         1 <1>         0.0000 
     98 H39        11.2376   16.5293  -15.5989 H         1 <1>         0.0000 
     99 H40        12.5356   16.4723  -14.3705 H         1 <1>         0.0000 
    100 H41        13.8945   15.0889  -13.1039 H         1 <1>         0.0000 
    101 H42        14.6362   13.2076  -11.8765 H         1 <1>         0.0000 
    102 H43        16.1560   13.5059  -14.4325 H         1 <1>         0.0000 
    103 H44        17.4510   14.7446  -12.8762 H         1 <1>         0.0000 
    104 H45        16.0047   16.5472  -14.2756 H         1 <1>         0.0000 
    105 H46        18.0287   15.6745  -15.2280 H         1 <1>         0.0000 
    106 H47        17.0728   16.4091  -16.5498 H         1 <1>         0.0000 
    107 H48        17.9493   14.2661  -17.1136 H         1 <1>         0.0000 
    108 H49        14.0502   12.6469  -21.7682 H         1 <1>         0.0000 
    109 H50        11.7214   12.3144  -21.6464 H         1 <1>         0.0000 
    110 H51        11.3235   14.5437  -20.6491 H         1 <1>         0.0000 
    111 H52        12.3813   14.5713  -22.0908 H         1 <1>         0.0000 
    112 H53        14.3565   14.5977  -20.4190 H         1 <1>         0.0000 
    113 H54        13.3456   16.7200  -21.4834 H         1 <1>         0.0000 
    114 H55        11.6176   16.5596  -18.9394 H         1 <1>         0.0000 
    115 H56        13.1335   17.4510  -17.0336 H         1 <1>         0.0000 
    116 H57        15.7829   18.0324  -19.4110 H         1 <1>         0.0000 
    117 H58        18.0098   18.7363  -18.8651 H         1 <1>         0.0000 
    118 H59        16.6483   19.4529  -14.9264 H         1 <1>         0.0000 
    119 H60        11.2629   16.7009  -22.6268 H         1 <1>         0.0000 
    120 H61        12.6782   18.9710  -20.5334 H         1 <1>         0.0000 
    121 H62        13.4807   19.9733  -18.6124 H         1 <1>         0.0000 
    122 H63        11.2964   20.1887  -17.6871 H         1 <1>         0.0000 
    123 H64        10.3259   18.5279  -20.4548 H         1 <1>         0.0000 
@<TRIPOS>BOND
     1    7    1 1    
     2    1    2 1    
     3    1    3 1    
     4    1    4 1    
     5    2    5 1    
     6    2    6 1    
     7    7    8 1    
     8    8    9 1    
     9    9   10 1    
    10   10   11 1    
    11   11   12 1    
    12   12   13 1    
    13   13   14 1    
    14   14   15 1    
    15   15   16 1    
    16   16   17 1    
    17   17   18 2    
    18   18   19 1    
    19   19   20 2    
    20   19   21 am   
    21   21   22 1    
    22   22   23 1    
    23   23   24 1    
    24   22   25 1    
    25   25   26 1    
    26   26   27 1    
    27   27   28 1    
    28   28   29 1    
    29   29   30 am   
    30   30   31 2    
    31   30   32 1    
    32   28   33 1    
    33   33   34 1    
    34   33   35 1    
    35   35   36 1    
    36   35   37 1    
    37   37   38 1    
    38   27   38 1    
    39   37   39 1    
    40   39   40 1    
    41   23   41 1    
    42   41   42 1    
    43   41   44 1    
    44   44   43 1    
    45   44   45 1    
    46   25   45 1    
    47   43   46 1    
    48   46   47 1    
    49   47   48 1    
    50   48   49 1    
    51   49   50 1    
    52   50   51 1    
    53   51   52 2    
    54   52   53 1    
    55   53   54 2    
    56   53   55 am   
    57   55   56 am   
    58   56   57 2    
    59   50   56 1    
    60   46   58 1    
    61   47   59 1    
    62   59   60 1    
    63   49   60 1    
    64   60   61 1    
    65   59   62 1    
    66    2   63 1    
    67    3   64 1    
    68    3   65 1    
    69    3   66 1    
    70    7   67 1    
    71    7   68 1    
    72    8   69 1    
    73    8   70 1    
    74    9   71 1    
    75    9   72 1    
    76   10   73 1    
    77   10   74 1    
    78   11   75 1    
    79   11   76 1    
    80   12   77 1    
    81   12   78 1    
    82   13   79 1    
    83   13   80 1    
    84   14   81 1    
    85   14   82 1    
    86   15   83 1    
    87   15   84 1    
    88   16   85 1    
    89   16   86 1    
    90   17   87 1    
    91   18   88 1    
    92   21   89 1    
    93   22   90 1    
    94   23   91 1    
    95   24   92 1    
    96   25   93 1    
    97   27   94 1    
    98   28   95 1    
    99   29   96 1    
   100   32   97 1    
   101   32   98 1    
   102   32   99 1    
   103   33  100 1    
   104   34  101 1    
   105   35  102 1    
   106   36  103 1    
   107   37  104 1    
   108   39  105 1    
   109   39  106 1    
   110   40  107 1    
   111   41  108 1    
   112   42  109 1    
   113   43  110 1    
   114   43  111 1    
   115   44  112 1    
   116   46  113 1    
   117   47  114 1    
   118   49  115 1    
   119   51  116 1    
   120   52  117 1    
   121   55  118 1    
   122   58  119 1    
   123   59  120 1    
   124   60  121 1    
   125   61  122 1    
   126   62  123 1    
@<TRIPOS>SUBSTRUCTURE
     1 ****        7 TEMP              0 ****  ****    0 ROOT 
@<TRIPOS>NORMAL
@<TRIPOS>FF_PBC
FORCE_FIELD_SETUP_FEATURE Force Field Setup information
v1.0  0 0.000000 0.000000 0.000000 0.000000 0.000000 0.000000 NONE 0 0 0 0 0 0 0 0 0 0 0 0 0
@<TRIPOS>RENDERING_ATTRS
ANTIALIASED_LINES 
*
