#	Name:			PISM00932
#	Creating user name:	baoopengkun
#	Creation time:		Wed Dec 12 22:39:59 2018

#	Modifying user name:	baoopengkun
#	Modification time:	Wed Dec 12 22:40:48 2018

@<TRIPOS>MOLECULE
PISM00932
   15    15     1     1     0
SMALL
GAST_HUCK


@<TRIPOS>ATOM
      1 C1         -1.8773   -8.6735    6.6275 C.2       1 <1>         0.2869 
      2 C2         -2.4278   -9.3911    5.4707 C.2       1 <1>         0.0546 
      3 C3         -1.4111  -10.1379    5.0480 C.2       1 <1>         0.0546 
      4 C4         -0.3280   -9.8171    5.9860 C.2       1 <1>         0.2869 
      5 O5         -0.6066   -8.9301    6.9427 O.3       1 <1>        -0.1716 
      6 O6         -2.5460   -7.8825    7.2702 O.2       1 <1>        -0.3482 
      7 O7          0.7725  -10.3337    5.8969 O.2       1 <1>        -0.3482 
      8 C8         -3.8144   -9.2956    4.8944 C.3       1 <1>        -0.0236 
      9 C9         -1.3789  -11.0956    3.8879 C.3       1 <1>        -0.0236 
     10 H1         -3.7626   -9.1802    3.8013 H         1 <1>         0.0387 
     11 H2         -4.3444   -8.4291    5.3178 H         1 <1>         0.0387 
     12 H3         -4.3768  -10.2100    5.1347 H         1 <1>         0.0387 
     13 H4         -1.3158  -10.5301    2.9464 H         1 <1>         0.0387 
     14 H5         -2.2903  -11.7120    3.8783 H         1 <1>         0.0387 
     15 H6         -0.5038  -11.7583    3.9659 H         1 <1>         0.0387 
@<TRIPOS>BOND
     1    2    1 1    
     2    2    3 2    
     3    3    4 1    
     4    4    5 1    
     5    1    5 1    
     6    1    6 2    
     7    4    7 2    
     8    2    8 1    
     9    3    9 1    
    10    8   10 1    
    11    8   11 1    
    12    8   12 1    
    13    9   13 1    
    14    9   14 1    
    15    9   15 1    
@<TRIPOS>SUBSTRUCTURE
     1 ****        2 TEMP              0 ****  ****    0 ROOT 
@<TRIPOS>NORMAL
@<TRIPOS>FF_PBC
FORCE_FIELD_SETUP_FEATURE Force Field Setup information
v1.0  0 0.000000 0.000000 0.000000 0.000000 0.000000 0.000000 NONE 0 0 0 0 1 0 0 0 0 0 0 0 0
