#	Name:			PISM00806.1
#	Creating user name:	baoopengkun
#	Creation time:		Sat Dec 15 02:25:18 2018

#	Modifying user name:	baoopengkun
#	Modification time:	Sat Dec 15 02:26:59 2018

@<TRIPOS>MOLECULE
PISM00806.1
   34    34     1     1     0
SMALL
GAST_HUCK


@<TRIPOS>ATOM
      1 C1          6.8063   24.0885  -41.6837 C.3       1 <1>         0.0634 
      2 O2          7.4979   22.8370  -41.5212 O.3       1 <1>        -0.2878 
      3 C3          7.4509   21.9544  -42.5385 C.2       1 <1>         0.2277 
      4 O4          8.0469   20.9016  -42.3825 O.2       1 <1>        -0.3781 
      5 C5          6.7251   22.1973  -43.8138 C.2       1 <1>        -0.0031 
      6 C6          6.7212   21.3005  -44.8118 C.2       1 <1>        -0.0632 
      7 C7          6.0353   21.4644  -46.1189 C.2       1 <1>        -0.0196 
      8 C8          5.6319   22.8450  -46.5920 C.3       1 <1>        -0.0402 
      9 C9          5.7865   20.3850  -46.8772 C.2       1 <1>         0.0829 
     10 O10         5.1706   20.5256  -48.0610 O.3       1 <1>        -0.2621 
     11 C11         4.9880   19.2880  -48.7690 C.3       1 <1>         0.2492 
     12 C12         4.1541   19.5617  -49.9959 C.2       1 <1>         0.0166 
     13 C13         2.9936   18.9096  -49.9600 C.2       1 <1>         0.0197 
     14 C14         3.0701   18.1947  -48.6893 C.2       1 <1>         0.2325 
     15 O15         4.1863   18.3762  -47.9906 O.3       1 <1>        -0.2322 
     16 C16         1.8774   18.9039  -50.9691 C.3       1 <1>        -0.0421 
     17 C17         4.6779   20.4870  -51.0636 C.3       1 <1>        -0.0222 
     18 O18         2.1747   17.4718  -48.2881 O.2       1 <1>        -0.3822 
     19 H1          6.9688   24.6615  -40.7588 H         1 <1>         0.0573 
     20 H2          5.7207   23.9456  -41.8016 H         1 <1>         0.0573 
     21 H3          7.2154   24.6784  -42.5190 H         1 <1>         0.0573 
     22 H4          6.1664   23.1134  -43.9773 H         1 <1>         0.0449 
     23 H5          7.2675   20.3703  -44.6484 H         1 <1>         0.0680 
     24 H6          6.4230   23.5720  -46.3547 H         1 <1>         0.0324 
     25 H7          4.7027   23.1444  -46.0846 H         1 <1>         0.0324 
     26 H8          5.4633   22.8951  -47.6782 H         1 <1>         0.0324 
     27 H9          6.0908   19.4028  -46.5059 H         1 <1>         0.1148 
     28 H10         5.9459   18.8195  -49.0512 H         1 <1>         0.1245 
     29 H11         2.2487   18.5267  -51.9336 H         1 <1>         0.0303 
     30 H12         1.4898   19.9247  -51.1027 H         1 <1>         0.0303 
     31 H13         1.0578   18.2550  -50.6259 H         1 <1>         0.0303 
     32 H14         4.8634   21.4810  -50.6293 H         1 <1>         0.0429 
     33 H15         3.9594   20.5939  -51.8896 H         1 <1>         0.0429 
     34 H16         5.6218   20.0918  -51.4675 H         1 <1>         0.0429 
@<TRIPOS>BOND
     1    2    1 1    
     2    2    3 1    
     3    3    4 2    
     4    3    5 1    
     5    5    6 2    
     6    6    7 1    
     7    7    8 1    
     8    7    9 2    
     9    9   10 1    
    10   10   11 1    
    11   11   12 1    
    12   12   13 2    
    13   13   14 1    
    14   14   15 1    
    15   11   15 1    
    16   13   16 1    
    17   12   17 1    
    18   14   18 2    
    19    1   19 1    
    20    1   20 1    
    21    1   21 1    
    22    5   22 1    
    23    6   23 1    
    24    8   24 1    
    25    8   25 1    
    26    8   26 1    
    27    9   27 1    
    28   11   28 1    
    29   16   29 1    
    30   16   30 1    
    31   16   31 1    
    32   17   32 1    
    33   17   33 1    
    34   17   34 1    
@<TRIPOS>SUBSTRUCTURE
     1 ****        2 TEMP              0 ****  ****    0 ROOT 
@<TRIPOS>NORMAL
@<TRIPOS>FF_PBC
FORCE_FIELD_SETUP_FEATURE Force Field Setup information
v1.0  0 0.000000 0.000000 0.000000 0.000000 0.000000 0.000000 NONE 0 0 0 0 1 0 0 0 0 0 0 0 0
