#	Name:			PISM00584.1
#	Creating user name:	baoopengkun
#	Creation time:		Mon Dec 10 10:54:12 2018

#	Modifying user name:	baoopengkun
#	Modification time:	Mon Dec 10 10:54:43 2018

@<TRIPOS>MOLECULE
PISM00584.1
   42    44     1     2     0
SMALL
GAST_HUCK


@<TRIPOS>ATOM
      1 C1         -8.9708   15.3898   -1.7080 C.ar      1 <1>        -0.0103 
      2 C2         -8.4376   14.4647   -2.6102 C.ar      1 <1>        -0.0135 
      3 C3         -9.1907   14.0313   -3.7066 C.ar      1 <1>         0.0314 
      4 C4        -10.4792   14.5392   -3.8990 C.ar      1 <1>        -0.0135 
      5 C5        -11.0100   15.4693   -3.0004 C.ar      1 <1>        -0.0103 
      6 C6        -10.2620   15.8950   -1.8975 C.ar      1 <1>         0.0719 
      7 C7         -8.6071   13.0053   -4.6854 C.3       1 <1>         0.2089 
      8 O8         -9.1212   13.2401   -6.0098 O.3       1 <1>        -0.3715 
      9 C9         -8.0042   13.4513   -6.8825 C.3       1 <1>         0.0674 
     10 C10        -6.9816   14.0693   -5.9105 C.3       1 <1>         0.0755 
     11 O11        -7.1874   13.1821   -4.8115 O.3       1 <1>        -0.3685 
     12 C12        -8.9206   11.5781   -4.1924 C.3       1 <1>         0.1150 
     13 N13        -8.3931   11.4247   -2.8467 N.pl3     1 <1>        -0.1794 
     14 C14        -7.1536   11.2651   -2.4978 C.2       1 <1>         0.1272 
     15 N15        -7.0694   11.1715   -1.2493 N.2       1 <1>        -0.2870 
     16 C16        -8.3709   11.2698   -0.6478 C.2       1 <1>         0.0618 
     17 N17        -9.1065   11.4187   -1.6862 N.2       1 <1>        -0.1906 
     18 C18       -10.8767   16.9064   -0.9238 C.3       1 <1>         0.3942 
     19 F19       -12.1364   16.5119   -0.5969 F         1 <1>        -0.2083 
     20 F20       -10.9359   18.1209   -1.5315 F         1 <1>        -0.2083 
     21 F21       -10.1411   17.0142    0.2154 F         1 <1>        -0.2083 
     22 C22        -5.5171   14.0237   -6.4119 C.3       1 <1>        -0.0255 
     23 C23        -4.5488   14.5685   -5.3280 C.3       1 <1>        -0.0535 
     24 C24        -3.0761   14.5166   -5.8109 C.3       1 <1>        -0.0652 
     25 H1         -8.3725   15.7116   -0.8610 H         1 <1>         0.0897 
     26 H2         -7.4340   14.0817   -2.4541 H         1 <1>         0.0896 
     27 H3        -11.0728   14.2114   -4.7471 H         1 <1>         0.0896 
     28 H4        -12.0093   15.8632   -3.1607 H         1 <1>         0.0897 
     29 H5         -8.2546   14.0972   -7.7377 H         1 <1>         0.0577 
     30 H6         -7.6483   12.4741   -7.2466 H         1 <1>         0.0577 
     31 H7         -7.2835   15.0973   -5.6438 H         1 <1>         0.0610 
     32 H8         -8.4641   10.8463   -4.8756 H         1 <1>         0.0618 
     33 H9        -10.0099   11.4240   -4.1813 H         1 <1>         0.0618 
     34 H10        -6.3036   11.2226   -3.1787 H         1 <1>         0.1361 
     35 H11        -8.6555   11.2284    0.4026 H         1 <1>         0.0863 
     36 H12        -5.4331   14.6270   -7.3300 H         1 <1>         0.0290 
     37 H13        -5.2484   12.9821   -6.6503 H         1 <1>         0.0290 
     38 H14        -4.6508   13.9657   -4.4099 H         1 <1>         0.0263 
     39 H15        -4.8137   15.6112   -5.0860 H         1 <1>         0.0263 
     40 H16        -2.4065   14.9058   -5.0276 H         1 <1>         0.0230 
     41 H17        -2.9477   15.1282   -6.7176 H         1 <1>         0.0230 
     42 H18        -2.7828   13.4799   -6.0388 H         1 <1>         0.0230 
@<TRIPOS>BOND
     1    2    1 ar   
     2    2    3 ar   
     3    3    4 ar   
     4    4    5 ar   
     5    5    6 ar   
     6    1    6 ar   
     7    3    7 1    
     8    7    8 1    
     9    8    9 1    
    10    9   10 1    
    11   10   11 1    
    12    7   11 1    
    13    7   12 1    
    14   12   13 1    
    15   13   14 1    
    16   14   15 2    
    17   15   16 1    
    18   16   17 2    
    19   13   17 1    
    20    6   18 1    
    21   18   19 1    
    22   18   20 1    
    23   18   21 1    
    24   10   22 1    
    25   22   23 1    
    26   23   24 1    
    27    1   25 1    
    28    2   26 1    
    29    4   27 1    
    30    5   28 1    
    31    9   29 1    
    32    9   30 1    
    33   10   31 1    
    34   12   32 1    
    35   12   33 1    
    36   14   34 1    
    37   16   35 1    
    38   22   36 1    
    39   22   37 1    
    40   23   38 1    
    41   23   39 1    
    42   24   40 1    
    43   24   41 1    
    44   24   42 1    
@<TRIPOS>SUBSTRUCTURE
     1 ****        2 TEMP              0 ****  ****    0 ROOT 
@<TRIPOS>NORMAL
@<TRIPOS>FF_PBC
FORCE_FIELD_SETUP_FEATURE Force Field Setup information
v1.0  0 0.000000 0.000000 0.000000 0.000000 0.000000 0.000000 NONE 0 0 0 0 1 0 0 0 0 0 0 0 0
@<TRIPOS>RENDERING_ATTRS
ANTIALIASED_LINES 
*
