#	Name:			PISM00771
#	Creating user name:	baoopengkun
#	Creation time:		Sat Jan 05 21:54:05 2019

#	Modifying user name:	baoopengkun
#	Modification time:	Sat Jan 05 21:57:46 2019

@<TRIPOS>MOLECULE
PISM00771
   38    40     1     1     0
SMALL
GAST_HUCK


@<TRIPOS>ATOM
      1 C1        -15.1280  -15.2484   22.1728 C.3       1 <1>        -0.0240 
      2 C2        -16.5152  -14.8597   21.6174 C.3       1 <1>        -0.0149 
      3 C3        -16.9669  -16.1559   21.0093 C.2       1 <1>        -0.0648 
      4 C4        -15.8629  -17.1746   20.8685 C.3       1 <1>         0.0394 
      5 C5        -14.5993  -16.3220   21.1834 C.3       1 <1>         0.0130 
      6 C6        -18.2294  -16.3637   20.6176 C.2       1 <1>        -0.1285 
      7 C7        -13.3960  -17.1090   21.6690 C.2       1 <1>        -0.0675 
      8 C8        -13.0817  -18.4014   20.9464 C.3       1 <1>        -0.0171 
      9 C9        -13.7418  -19.5876   21.6972 C.3       1 <1>        -0.0329 
     10 C10       -15.2708  -19.6423   21.4443 C.3       1 <1>         0.0177 
     11 C11       -16.0509  -18.3685   21.8490 C.3       1 <1>         0.1096 
     12 C12       -12.6174  -16.7097   22.6857 C.2       1 <1>        -0.1286 
     13 O13       -17.4062  -18.8415   21.8759 O.3       1 <1>        -0.2697 
     14 C14       -16.0347  -20.7590   22.2025 C.3       1 <1>         0.0889 
     15 C15       -17.4053  -20.1454   22.1630 C.2       1 <1>         0.2399 
     16 O16       -18.4266  -20.7827   22.3547 O.2       1 <1>        -0.3700 
     17 C17       -15.6319  -20.9951   23.6831 C.3       1 <1>         0.0654 
     18 O18       -16.4855  -21.9854   24.2825 O.3       1 <1>        -0.3923 
     19 H1        -15.2585  -15.6905   23.1742 H         1 <1>         0.0323 
     20 H2        -14.4692  -14.3680   22.2542 H         1 <1>         0.0323 
     21 H3        -16.4159  -14.1147   20.8116 H         1 <1>         0.0462 
     22 H4        -17.1988  -14.4766   22.3922 H         1 <1>         0.0462 
     23 H5        -15.8636  -17.5366   19.8277 H         1 <1>         0.0554 
     24 H6        -14.2969  -15.7979   20.2600 H         1 <1>         0.0527 
     25 H7        -18.9833  -15.5873   20.7425 H         1 <1>         0.0075 
     26 H8        -18.5325  -17.3059   20.1627 H         1 <1>         0.0075 
     27 H9        -11.9896  -18.5559   20.9432 H         1 <1>         0.0460 
     28 H10       -13.3982  -18.3631   19.8922 H         1 <1>         0.0460 
     29 H11       -13.5184  -19.4837   22.7705 H         1 <1>         0.0297 
     30 H12       -13.3054  -20.5379   21.3462 H         1 <1>         0.0297 
     31 H13       -15.4385  -19.8164   20.3662 H         1 <1>         0.0362 
     32 H14       -15.7923  -18.0656   22.8759 H         1 <1>         0.0686 
     33 H15       -12.7735  -15.7888   23.2428 H         1 <1>         0.0075 
     34 H16       -11.7665  -17.3103   23.0067 H         1 <1>         0.0075 
     35 H17       -16.0130  -21.7181   21.6591 H         1 <1>         0.0581 
     36 H18       -15.6639  -20.0648   24.2734 H         1 <1>         0.0586 
     37 H19       -14.6119  -21.4064   23.7325 H         1 <1>         0.0586 
     38 H20       -17.4074  -21.7385   24.2843 H         1 <1>         0.2096 
@<TRIPOS>BOND
     1    2    1 1    
     2    2    3 1    
     3    3    4 1    
     4    4    5 1    
     5    1    5 1    
     6    3    6 2    
     7    5    7 1    
     8    7    8 1    
     9    8    9 1    
    10    9   10 1    
    11   10   11 1    
    12    4   11 1    
    13    7   12 2    
    14   11   13 1    
    15   10   14 1    
    16   14   15 1    
    17   13   15 1    
    18   15   16 2    
    19   14   17 1    
    20   17   18 1    
    21    1   19 1    
    22    1   20 1    
    23    2   21 1    
    24    2   22 1    
    25    4   23 1    
    26    5   24 1    
    27    6   25 1    
    28    6   26 1    
    29    8   27 1    
    30    8   28 1    
    31    9   29 1    
    32    9   30 1    
    33   10   31 1    
    34   11   32 1    
    35   12   33 1    
    36   12   34 1    
    37   14   35 1    
    38   17   36 1    
    39   17   37 1    
    40   18   38 1    
@<TRIPOS>SUBSTRUCTURE
     1 ****        2 TEMP              0 ****  ****    0 ROOT 
@<TRIPOS>NORMAL
@<TRIPOS>FF_PBC
FORCE_FIELD_SETUP_FEATURE Force Field Setup information
v1.0  0 0.000000 0.000000 0.000000 0.000000 0.000000 0.000000 NONE 0 0 0 0 1 0 0 0 0 0 0 0 0
