#	Name:			PISM01175
#	Creating user name:	baoopengkun
#	Creation time:		Tue Dec 18 16:58:17 2018

#	Modifying user name:	baoopengkun
#	Modification time:	Tue Dec 18 17:03:58 2018

@<TRIPOS>MOLECULE
PISM01175
  111   115     1     1     0
SMALL
GAST_HUCK


@<TRIPOS>ATOM
      1 C1         14.4113   33.2431    0.7487 C.3       1 <1>         0.0650 
      2 C2         15.5342   33.1970   -0.3219 C.3       1 <1>         0.0091 
      3 C3         14.8875   32.7486   -1.6759 C.3       1 <1>         0.0719 
      4 O4         13.6377   32.0247   -1.5820 O.3       1 <1>        -0.3446 
      5 C5         13.4431   31.1643   -0.4376 C.3       1 <1>         0.1736 
      6 C6         13.7650   31.8462    0.9280 C.3       1 <1>         0.0278 
      7 C7         15.8225   32.3804   -2.8856 C.3       1 <1>         0.0117 
      8 C8         15.1064   32.7207   -4.2449 C.3       1 <1>         0.0837 
      9 C9         15.8195   32.2150   -5.5477 C.3       1 <1>         0.0835 
     10 C10        14.8683   32.1006   -6.7302 C.2       1 <1>         0.2366 
     11 O11        13.6854   32.3783   -6.6384 O.2       1 <1>        -0.3702 
     12 O12        15.3064   31.6526   -7.9125 O.3       1 <1>        -0.2924 
     13 C13        17.0852   33.0716   -5.8457 C.3       1 <1>        -0.0416 
     14 O14        15.0083   34.1684   -4.2273 O.3       1 <1>        -0.3767 
     15 C15        14.0721   34.7550   -5.1517 C.3       1 <1>         0.0370 
     16 C16        16.3299   30.9106   -2.8393 C.3       1 <1>        -0.0575 
     17 C17        16.7605   32.3846    0.1863 C.3       1 <1>        -0.0577 
     18 O18        13.4041   34.2224    0.4306 O.3       1 <1>        -0.3913 
     19 H19        14.4366   33.6964   -2.0111 H         1 <1>         0.0604 
     20 C20        14.0387   29.7487   -0.6292 C.3       1 <1>         0.0042 
     21 O21        12.0322   30.8695   -0.4747 O.3       1 <1>        -0.3398 
     22 C22        13.1313   28.8761    0.2542 C.3       1 <1>        -0.0166 
     23 C23        11.7504   29.5581    0.0659 C.3       1 <1>         0.0961 
     24 C24        10.9191   28.8485   -1.0368 C.3       1 <1>        -0.0333 
     25 C25        10.9450   29.6354    1.3981 C.3       1 <1>         0.0883 
     26 C26        10.5067   28.2685    1.9644 C.3       1 <1>        -0.0212 
     27 C27        10.2386   28.6287    3.4410 C.3       1 <1>        -0.0189 
     28 C28        11.2955   29.7269    3.7527 C.3       1 <1>         0.0961 
     29 O29        11.7411   30.1838    2.4594 O.3       1 <1>        -0.3648 
     30 H30        10.0601   30.2730    1.2455 H         1 <1>         0.0625 
     31 C31        12.5995   29.1421    4.3918 C.3       1 <1>         0.0906 
     32 C32        12.6784   28.7081    5.8971 C.3       1 <1>        -0.0124 
     33 C33        13.1796   27.2435    5.8195 C.3       1 <1>        -0.0191 
     34 C34        13.8776   27.1636    4.4445 C.3       1 <1>         0.0858 
     35 O35        12.9757   27.9555    3.6617 O.3       1 <1>        -0.3677 
     36 H36        13.3771   29.9032    4.2066 H         1 <1>         0.0627 
     37 C37        10.7234   30.9617    4.5155 C.3       1 <1>        -0.0241 
     38 C38         9.9227   31.9517    3.6250 C.3       1 <1>        -0.0626 
     39 C39        11.4339   28.8301    6.8189 C.3       1 <1>        -0.0599 
     40 C40        15.3441   27.6925    4.4014 C.3       1 <1>         0.0881 
     41 C41        16.3498   26.6932    5.0553 C.3       1 <1>        -0.0147 
     42 C42        17.1696   27.4013    6.1725 C.3       1 <1>        -0.0428 
     43 C43        17.7624   28.7889    5.7808 C.3       1 <1>        -0.0125 
     44 C44        16.7219   29.6364    4.9626 C.3       1 <1>         0.0927 
     45 O45        15.4318   28.9900    5.0229 O.3       1 <1>        -0.3651 
     46 H46        13.8629   26.1384    4.0367 H         1 <1>         0.0622 
     47 H47        15.5385   27.7904    3.3228 H         1 <1>         0.0625 
     48 C48        17.2145   25.9447    4.0011 C.3       1 <1>        -0.0600 
     49 C49        19.2031   28.7163    5.1925 C.3       1 <1>        -0.0597 
     50 C50        17.1375   29.9025    3.4832 C.3       1 <1>        -0.0334 
     51 C51        16.4761   31.0112    5.6665 C.3       1 <1>         0.0732 
     52 O52        15.4670   31.8402    5.0538 O.3       1 <1>        -0.3922 
     53 H1         14.8325   33.5799    1.7118 H         1 <1>         0.0598 
     54 H2         15.9207   34.2286   -0.4319 H         1 <1>         0.0348 
     55 H3         14.4027   31.2028    1.5490 H         1 <1>         0.0342 
     56 H4         12.8405   32.0352    1.4902 H         1 <1>         0.0342 
     57 H5         16.7050   33.0359   -2.8010 H         1 <1>         0.0350 
     58 H6         14.1120   32.2466   -4.1742 H         1 <1>         0.0628 
     59 H7         16.1207   31.1671   -5.4234 H         1 <1>         0.0577 
     60 H8         16.2107   31.3716   -7.9386 H         1 <1>         0.2540 
     61 H9         16.8044   34.1048   -6.0955 H         1 <1>         0.0259 
     62 H10        17.6725   32.6686   -6.6829 H         1 <1>         0.0259 
     63 H11        17.7483   33.0968   -4.9692 H         1 <1>         0.0259 
     64 H12        13.0634   34.3293   -5.0357 H         1 <1>         0.0524 
     65 H13        14.3970   34.6741   -6.1979 H         1 <1>         0.0524 
     66 H14        14.0180   35.8259   -4.9080 H         1 <1>         0.0524 
     67 H15        17.2213   30.7799   -3.4713 H         1 <1>         0.0234 
     68 H16        15.5452   30.2253   -3.1877 H         1 <1>         0.0234 
     69 H17        16.6339   30.6059   -1.8352 H         1 <1>         0.0234 
     70 H18        17.1376   32.8254    1.1228 H         1 <1>         0.0234 
     71 H20        17.5835   32.4189   -0.5432 H         1 <1>         0.0234 
     72 H21        16.5163   31.3385    0.3984 H         1 <1>         0.0234 
     73 H22        12.8596   33.9722   -0.3102 H         1 <1>         0.2098 
     74 H23        15.0942   29.6351   -0.3543 H         1 <1>         0.0318 
     75 H24        13.8989   29.4467   -1.6779 H         1 <1>         0.0318 
     76 H25        13.4832   28.9469    1.2944 H         1 <1>         0.0295 
     77 H26        13.1474   27.8138   -0.0375 H         1 <1>         0.0295 
     78 H27        11.4572   28.8747   -1.9963 H         1 <1>         0.0258 
     79 H28         9.9563   29.3650   -1.1695 H         1 <1>         0.0258 
     80 H29        10.7246   27.7971   -0.7796 H         1 <1>         0.0258 
     81 H31        11.3271   27.5392    1.8873 H         1 <1>         0.0292 
     82 H32         9.6162   27.8539    1.4646 H         1 <1>         0.0292 
     83 H33         9.2193   29.0365    3.5260 H         1 <1>         0.0295 
     84 H34        10.3145   27.7408    4.0862 H         1 <1>         0.0295 
     85 H35        13.4659   29.3001    6.3977 H         1 <1>         0.0325 
     86 H37        12.3076   26.5689    5.7947 H         1 <1>         0.0294 
     87 H38        13.8253   26.9544    6.6634 H         1 <1>         0.0294 
     88 H39        11.5563   31.5208    4.9723 H         1 <1>         0.0291 
     89 H40        10.0378   30.6328    5.3085 H         1 <1>         0.0291 
     90 H41        10.5566   32.3646    2.8253 H         1 <1>         0.0231 
     91 H42         9.5613   32.7933    4.2375 H         1 <1>         0.0231 
     92 H43         9.0480   31.4636    3.1707 H         1 <1>         0.0231 
     93 H44        11.6233   28.2801    7.7543 H         1 <1>         0.0233 
     94 H45        10.5324   28.4070    6.3566 H         1 <1>         0.0233 
     95 H48        11.2520   29.8781    7.0982 H         1 <1>         0.0233 
     96 H49        15.7920   25.8878    5.5671 H         1 <1>         0.0324 
     97 H50        17.9538   26.7338    6.5642 H         1 <1>         0.0272 
     98 H51        16.4569   27.5798    6.9987 H         1 <1>         0.0272 
     99 H52        17.9364   29.2905    6.7511 H         1 <1>         0.0327 
    100 H53        17.9344   25.2745    4.4964 H         1 <1>         0.0233 
    101 H54        17.7696   26.6330    3.3539 H         1 <1>         0.0233 
    102 H55        16.5641   25.3339    3.3547 H         1 <1>         0.0233 
    103 H56        19.8777   28.2148    5.9048 H         1 <1>         0.0233 
    104 H57        19.5951   29.7309    5.0214 H         1 <1>         0.0233 
    105 H58        19.2595   28.1603    4.2504 H         1 <1>         0.0233 
    106 H59        17.9351   30.6580    3.4289 H         1 <1>         0.0258 
    107 H60        16.2730   30.2739    2.9169 H         1 <1>         0.0258 
    108 H61        17.4927   29.0037    2.9666 H         1 <1>         0.0258 
    109 H62        17.4204   31.5737    5.7576 H         1 <1>         0.0586 
    110 H63        16.0955   30.8156    6.6818 H         1 <1>         0.0586 
    111 H64        15.7017   32.1672    4.1927 H         1 <1>         0.2095 
@<TRIPOS>BOND
     1    2    1 1    
     2    2    3 1    
     3    3    4 1    
     4    4    5 1    
     5    5    6 1    
     6    1    6 1    
     7    3    7 1    
     8    7    8 1    
     9    8    9 1    
    10    9   10 1    
    11   10   11 2    
    12   10   12 1    
    13    9   13 1    
    14    8   14 1    
    15   14   15 1    
    16    7   16 1    
    17    2   17 1    
    18    1   18 1    
    19    3   19 1    
    20    5   20 1    
    21    5   21 1    
    22   20   22 1    
    23   22   23 1    
    24   21   23 1    
    25   23   24 1    
    26   23   25 1    
    27   25   26 1    
    28   26   27 1    
    29   27   28 1    
    30   28   29 1    
    31   25   29 1    
    32   25   30 1    
    33   28   31 1    
    34   31   32 1    
    35   32   33 1    
    36   33   34 1    
    37   34   35 1    
    38   31   35 1    
    39   31   36 1    
    40   28   37 1    
    41   37   38 1    
    42   32   39 1    
    43   34   40 1    
    44   40   41 1    
    45   41   42 1    
    46   42   43 1    
    47   43   44 1    
    48   44   45 1    
    49   40   45 1    
    50   34   46 1    
    51   40   47 1    
    52   41   48 1    
    53   43   49 1    
    54   44   50 1    
    55   44   51 1    
    56   51   52 1    
    57    1   53 1    
    58    2   54 1    
    59    6   55 1    
    60    6   56 1    
    61    7   57 1    
    62    8   58 1    
    63    9   59 1    
    64   12   60 1    
    65   13   61 1    
    66   13   62 1    
    67   13   63 1    
    68   15   64 1    
    69   15   65 1    
    70   15   66 1    
    71   16   67 1    
    72   16   68 1    
    73   16   69 1    
    74   17   70 1    
    75   17   71 1    
    76   17   72 1    
    77   18   73 1    
    78   20   74 1    
    79   20   75 1    
    80   22   76 1    
    81   22   77 1    
    82   24   78 1    
    83   24   79 1    
    84   24   80 1    
    85   26   81 1    
    86   26   82 1    
    87   27   83 1    
    88   27   84 1    
    89   32   85 1    
    90   33   86 1    
    91   33   87 1    
    92   37   88 1    
    93   37   89 1    
    94   38   90 1    
    95   38   91 1    
    96   38   92 1    
    97   39   93 1    
    98   39   94 1    
    99   39   95 1    
   100   41   96 1    
   101   42   97 1    
   102   42   98 1    
   103   43   99 1    
   104   48  100 1    
   105   48  101 1    
   106   48  102 1    
   107   49  103 1    
   108   49  104 1    
   109   49  105 1    
   110   50  106 1    
   111   50  107 1    
   112   50  108 1    
   113   51  109 1    
   114   51  110 1    
   115   52  111 1    
@<TRIPOS>SUBSTRUCTURE
     1 ****        2 TEMP              0 ****  ****    0 ROOT 
@<TRIPOS>NORMAL
@<TRIPOS>FF_PBC
FORCE_FIELD_SETUP_FEATURE Force Field Setup information
v1.0  0 0.000000 0.000000 0.000000 0.000000 0.000000 0.000000 NONE 0 0 0 0 1 0 0 0 0 0 0 0 0
