#	Name:			PISM00186
#	Creating user name:	14062
#	Creation time:		Mon Apr 01 21:05:00 2019

#	Modifying user name:	14062
#	Modification time:	Mon Apr 01 21:05:21 2019

@<TRIPOS>MOLECULE
PISM00186
   34    35     1     2     0
SMALL
GAST_HUCK


@<TRIPOS>ATOM
      1 C1         -1.0679   -2.9440    0.5051 C.ar      1 <1>        -0.0768 
      2 C2          0.2047   -3.5209    0.6353 C.ar      1 <1>        -0.0748 
      3 C3          1.3658   -2.7952    0.3346 C.ar      1 <1>        -0.0467 
      4 C4          1.2061   -1.4787   -0.0974 C.ar      1 <1>         0.0450 
      5 C5         -0.0509   -0.9266   -0.2318 C.ar      1 <1>        -0.0185 
      6 C6         -1.2209   -1.6219    0.0691 C.ar      1 <1>        -0.0716 
      7 C7          0.2860    0.4487   -0.7363 C.2       1 <1>        -0.0224 
      8 C8          1.6268    0.5144   -0.8147 C.2       1 <1>         0.0040 
      9 N9          2.2609   -0.6062   -0.4327 N.3       1 <1>        -0.2350 
     10 C10        -0.7270    1.5101   -1.0862 C.3       1 <1>         0.0784 
     11 C11        -0.0395    2.8586   -1.1517 C.2       1 <1>         0.2403 
     12 O12         0.1869    3.4120   -2.2134 O.2       1 <1>        -0.3685 
     13 O13         0.3514    3.4504   -0.0177 O.3       1 <1>        -0.2916 
     14 C14        -1.4197    1.1084   -2.4181 C.3       1 <1>        -0.0271 
     15 H1         -1.9495   -3.5299    0.7456 H         1 <1>         0.0524 
     16 H2          0.2936   -4.5485    0.9756 H         1 <1>         0.0543 
     17 H3          2.3537   -3.2333    0.4284 H         1 <1>         0.0548 
     18 H4         -2.1975   -1.1613   -0.0313 H         1 <1>         0.0551 
     19 H5          2.1691    1.3941   -1.1654 H         1 <1>         0.0760 
     20 H6          2.8579   -0.4092    0.4477 H         1 <1>         0.1886 
     21 H7         -1.4852    1.5369   -0.2887 H         1 <1>         0.0644 
     22 H8          0.1659    2.9616    0.7745 H         1 <1>         0.2540 
     23 H9         -1.8308    0.0911   -2.3115 H         1 <1>         0.0308 
     24 H10        -0.6692    1.0888   -3.2249 H         1 <1>         0.0308 
     25 H11        -2.1889    3.0889   -2.9631 H         1 <1>         0.0268 
     26 C26        -2.5783    2.0715   -2.8003 C.3       1 <1>        -0.0497 
     27 H12        -3.3097    2.1131   -1.9768 H         1 <1>         0.0268 
     28 H13        -3.7442    0.6043   -3.9249 H         1 <1>         0.0263 
     29 C29        -3.3000    1.5998   -4.0926 C.3       1 <1>        -0.0557 
     30 H14        -2.5717    1.5171   -4.9167 H         1 <1>         0.0263 
     31 C31        -4.4195    2.5912   -4.5043 C.3       1 <1>        -0.0653 
     32 H15        -3.9887    3.5793   -4.7293 H         1 <1>         0.0230 
     33 H16        -5.1549    2.7039   -3.6929 H         1 <1>         0.0230 
     34 H17        -4.9418    2.2252   -5.4023 H         1 <1>         0.0230 
@<TRIPOS>BOND
     1    2    1 ar   
     2    2    3 ar   
     3    3    4 ar   
     4    4    5 ar   
     5    5    6 ar   
     6    1    6 ar   
     7    5    7 1    
     8    7    8 2    
     9    8    9 1    
    10    4    9 1    
    11    7   10 1    
    12   10   11 1    
    13   11   12 2    
    14   11   13 1    
    15   10   14 1    
    16    1   15 1    
    17    2   16 1    
    18    3   17 1    
    19    6   18 1    
    20    8   19 1    
    21    9   20 1    
    22   10   21 1    
    23   13   22 1    
    24   14   23 1    
    25   14   24 1    
    26   26   25 1    
    27   14   26 1    
    28   26   27 1    
    29   29   28 1    
    30   26   29 1    
    31   29   30 1    
    32   29   31 1    
    33   31   32 1    
    34   31   33 1    
    35   31   34 1    
@<TRIPOS>SUBSTRUCTURE
     1 ****        2 TEMP              0 ****  ****    0 ROOT 
@<TRIPOS>NORMAL
@<TRIPOS>FF_PBC
FORCE_FIELD_SETUP_FEATURE Force Field Setup information
v1.0  0 0.000000 0.000000 0.000000 0.000000 0.000000 0.000000 NONE 0 0 0 0 1 0 0 0 0 0 0 0 0
@<TRIPOS>RENDERING_ATTRS
ANTIALIASED_LINES 
1,2,3,4,5,6,7,8,9,10,11,12,13,14,15,16,17,18,19,20,21,22,23,24,25
