#	Name:			PISM00367
#	Creating user name:	malab
#	Creation time:		Tue Apr 02 20:32:38 2019

#	Modifying user name:	malab
#	Modification time:	Tue Apr 02 20:38:51 2019

@<TRIPOS>MOLECULE
PISM00367
   51    53     1     1     0
SMALL
GAST_HUCK


@<TRIPOS>ATOM
      1 N1          6.5034   -1.0058   -7.3343 N.2       1 <1>        -0.1730 
      2 C2          7.0898   -1.2627   -8.4422 C.2       1 <1>         0.0653 
      3 N3          6.1718   -0.6480   -9.3547 N.2       1 <1>        -0.2827 
      4 C4          5.2104   -0.1322   -8.7358 C.2       1 <1>         0.1489 
      5 N5          5.3315   -0.3124   -7.4489 N.pl3     1 <1>        -0.1236 
      6 C6          4.5358    0.0797   -6.4813 C.2       1 <1>         0.1347 
      7 C7          4.9929   -0.3368   -5.0870 C.3       1 <1>         0.1322 
      8 O8          6.4061   -0.1227   -4.9095 O.3       1 <1>        -0.3716 
      9 N9         -1.0196    1.7977   -2.0071 N.2       1 <1>        -0.0916 
     10 N10        -1.6898    2.4713   -1.0581 N.2       1 <1>        -0.2236 
     11 C11         3.4099    0.7862   -6.6933 C.2       1 <1>        -0.0370 
     12 C12         2.9334    2.2577   -4.6858 C.ar      1 <1>        -0.0693 
     13 C13         2.1002    2.6691   -3.6412 C.ar      1 <1>        -0.0312 
     14 C14         0.7966    2.1678   -3.5368 C.ar      1 <1>         0.1107 
     15 C15         0.3527    1.2284   -4.4732 C.ar      1 <1>        -0.0312 
     16 C16         1.1901    0.8049   -5.5089 C.ar      1 <1>        -0.0693 
     17 N17        -0.0467    2.5610   -2.5508 N.pl3     1 <1>        -0.1417 
     18 C18         2.4963    1.2935   -5.5991 C.ar      1 <1>        -0.0552 
     19 C19         4.5466   -1.7809   -4.6667 C.3       1 <1>         0.0043 
     20 C20         5.0724   -2.8843   -5.6331 C.3       1 <1>        -0.0552 
     21 C21         5.0829   -2.0826   -3.2344 C.3       1 <1>        -0.0552 
     22 C22         2.9912   -1.8652   -4.6382 C.3       1 <1>        -0.0552 
     23 C23        -1.0470    3.7615   -1.0712 C.2       1 <1>         0.0664 
     24 C24        -0.0762    3.7410   -1.9911 C.2       1 <1>         0.0851 
     25 C25        -1.4722    4.8903   -0.1607 C.3       1 <1>         0.0873 
     26 O26        -2.8546    5.2152   -0.3857 O.3       1 <1>        -0.3831 
     27 H1          8.0202   -1.7953   -8.6344 H         1 <1>         0.0879 
     28 H2          4.4335    0.3737   -9.3050 H         1 <1>         0.1387 
     29 H3          4.5663    0.3368   -4.3337 H         1 <1>         0.0846 
     30 H4          6.9312   -0.6194   -5.5296 H         1 <1>         0.2141 
     31 H5          3.0473    1.0596   -7.6798 H         1 <1>         0.0306 
     32 H6          3.9241    2.6910   -4.7883 H         1 <1>         0.0534 
     33 H7          2.4849    3.3729   -2.9121 H         1 <1>         0.0577 
     34 H8         -0.6525    0.8262   -4.3987 H         1 <1>         0.0577 
     35 H9          0.8238    0.0938   -6.2426 H         1 <1>         0.0534 
     36 H10         4.7251   -3.8762   -5.3055 H         1 <1>         0.0238 
     37 H11         6.1714   -2.9119   -5.6522 H         1 <1>         0.0238 
     38 H12         4.7006   -2.7249   -6.6560 H         1 <1>         0.0238 
     39 H13         4.7643   -3.0814   -2.8984 H         1 <1>         0.0238 
     40 H14         4.7059   -1.3439   -2.5103 H         1 <1>         0.0238 
     41 H15         6.1830   -2.0528   -3.2162 H         1 <1>         0.0238 
     42 H16         2.5781   -1.7101   -5.6454 H         1 <1>         0.0238 
     43 H17         2.5679   -1.1084   -3.9603 H         1 <1>         0.0238 
     44 H18         2.6592   -2.8547   -4.2881 H         1 <1>         0.0238 
     45 H19         0.5693    4.5847   -2.2266 H         1 <1>         0.0902 
     46 C46        -0.6081    6.1716   -0.2884 C.3       1 <1>        -0.0318 
     47 H21        -1.3940    4.5141    0.8725 H         1 <1>         0.0709 
     48 H22        -3.0235    5.5030   -1.2769 H         1 <1>         0.2122 
     49 H20         0.4457    5.9533   -0.0558 H         1 <1>         0.0271 
     50 H23        -0.9727    6.9331    0.4184 H         1 <1>         0.0271 
     51 H24        -0.6760    6.5834   -1.3069 H         1 <1>         0.0271 
@<TRIPOS>BOND
     1    2    1 2    
     2    2    3 1    
     3    3    4 2    
     4    4    5 1    
     5    1    5 1    
     6    5    6 1    
     7    6    7 1    
     8    7    8 1    
     9   17    9 1    
    10    9   10 2    
    11   10   23 1    
    12    6   11 2    
    13   18   12 ar   
    14   12   13 ar   
    15   13   14 ar   
    16   15   14 ar   
    17   16   15 ar   
    18   18   16 ar   
    19   11   18 1    
    20   14   17 1    
    21    7   19 1    
    22   19   20 1    
    23   19   21 1    
    24   19   22 1    
    25   24   23 2    
    26   17   24 1    
    27   23   25 1    
    28   25   26 1    
    29    2   27 1    
    30    4   28 1    
    31    7   29 1    
    32    8   30 1    
    33   11   31 1    
    34   12   32 1    
    35   13   33 1    
    36   15   34 1    
    37   16   35 1    
    38   20   36 1    
    39   20   37 1    
    40   20   38 1    
    41   21   39 1    
    42   21   40 1    
    43   21   41 1    
    44   22   42 1    
    45   22   43 1    
    46   22   44 1    
    47   24   45 1    
    48   25   46 1    
    49   25   47 1    
    50   26   48 1    
    51   46   49 1    
    52   46   50 1    
    53   46   51 1    
@<TRIPOS>SUBSTRUCTURE
     1 ****        2 TEMP              0 ****  ****    0 ROOT 
@<TRIPOS>NORMAL
@<TRIPOS>FF_PBC
FORCE_FIELD_SETUP_FEATURE Force Field Setup information
v1.0  0 0.000000 0.000000 0.000000 0.000000 0.000000 0.000000 NONE 0 0 0 0 1 0 0 0 0 0 0 0 0
