#	Name:			PISM00955
#	Creating user name:	baoopengkun
#	Creation time:		Thu Dec 13 10:20:57 2018

#	Modifying user name:	baoopengkun
#	Modification time:	Thu Dec 13 10:27:01 2018

@<TRIPOS>MOLECULE
PISM00955
   38    39     1     1     0
SMALL
GAST_HUCK


@<TRIPOS>ATOM
      1 C1         -9.6865    9.3979   -3.0191 C.3       1 <1>        -0.0575 
      2 C2        -11.0231   10.0340   -2.5384 C.3       1 <1>        -0.0059 
      3 C3        -11.0578   11.5163   -3.0334 C.3       1 <1>        -0.0575 
      4 C4        -11.0236   10.0697   -0.9770 C.3       1 <1>        -0.0575 
      5 C5        -12.2691    9.2520   -3.1019 C.3       1 <1>         0.1219 
      6 C6        -12.4290    7.7798   -2.6044 C.3       1 <1>         0.2332 
      7 N7        -11.4379    6.8611   -3.1502 N.pl3     1 <1>        -0.1431 
      8 N8        -10.8399    6.9281   -4.3736 N.2       1 <1>        -0.1875 
      9 C9         -9.9909    5.9912   -4.5764 C.2       1 <1>         0.0619 
     10 N10       -10.0805    5.2776   -3.3328 N.2       1 <1>        -0.2869 
     11 C11       -10.9149    5.8234   -2.5713 C.2       1 <1>         0.1311 
     12 O12       -12.2923    9.2326   -4.5453 O.3       1 <1>        -0.3851 
     13 O13       -13.7412    7.2555   -2.8834 O.3       1 <1>        -0.2786 
     14 C14       -14.0472    7.0993   -4.2350 C.ar      1 <1>         0.0956 
     15 C15       -13.5949    5.9770   -4.9352 C.ar      1 <1>        -0.0323 
     16 C16       -13.8624    5.8487   -6.3012 C.ar      1 <1>        -0.0567 
     17 C17       -14.6074    6.8290   -6.9623 C.ar      1 <1>         0.0285 
     18 C18       -15.0908    7.9337   -6.2557 C.ar      1 <1>        -0.0567 
     19 C19       -14.8168    8.0640   -4.8911 C.ar      1 <1>        -0.0323 
     20 Cl20      -14.9366    6.6724   -8.6757 Cl        1 <1>        -0.0810 
     21 H1         -9.5411    8.3966   -2.5907 H         1 <1>         0.0236 
     22 H2         -8.8315   10.0172   -2.7071 H         1 <1>         0.0236 
     23 H3         -9.6694    9.3179   -4.1166 H         1 <1>         0.0236 
     24 H4        -12.0231   11.9846   -2.7876 H         1 <1>         0.0236 
     25 H5        -10.8973   11.5917   -4.1182 H         1 <1>         0.0236 
     26 H6        -10.2636   12.1128   -2.5586 H         1 <1>         0.0236 
     27 H7        -10.8178    9.0838   -0.5371 H         1 <1>         0.0236 
     28 H8        -11.9928   10.4305   -0.5998 H         1 <1>         0.0236 
     29 H9        -10.2398   10.7447   -0.6000 H         1 <1>         0.0236 
     30 H10       -13.1794    9.7673   -2.7487 H         1 <1>         0.0661 
     31 H11       -12.3907    7.7521   -1.5077 H         1 <1>         0.1080 
     32 H12        -9.3734    5.7944   -5.4513 H         1 <1>         0.0864 
     33 H13       -11.1491    5.4579   -1.5721 H         1 <1>         0.1362 
     34 H14       -12.4075   10.0779   -4.9632 H         1 <1>         0.2101 
     35 H15       -13.0375    5.2039   -4.4177 H         1 <1>         0.0543 
     36 H16       -13.4925    4.9884   -6.8494 H         1 <1>         0.0595 
     37 H17       -15.6775    8.6891   -6.7681 H         1 <1>         0.0595 
     38 H18       -15.1976    8.9151   -4.3374 H         1 <1>         0.0543 
@<TRIPOS>BOND
     1    2    1 1    
     2    2    3 1    
     3    2    4 1    
     4    2    5 1    
     5    5    6 1    
     6    6    7 1    
     7    7    8 1    
     8    8    9 2    
     9    9   10 1    
    10   10   11 2    
    11    7   11 1    
    12    5   12 1    
    13    6   13 1    
    14   13   14 1    
    15   14   15 ar   
    16   15   16 ar   
    17   16   17 ar   
    18   17   18 ar   
    19   18   19 ar   
    20   14   19 ar   
    21   17   20 1    
    22    1   21 1    
    23    1   22 1    
    24    1   23 1    
    25    3   24 1    
    26    3   25 1    
    27    3   26 1    
    28    4   27 1    
    29    4   28 1    
    30    4   29 1    
    31    5   30 1    
    32    6   31 1    
    33    9   32 1    
    34   11   33 1    
    35   12   34 1    
    36   15   35 1    
    37   16   36 1    
    38   18   37 1    
    39   19   38 1    
@<TRIPOS>SUBSTRUCTURE
     1 ****        2 TEMP              0 ****  ****    0 ROOT 
@<TRIPOS>NORMAL
@<TRIPOS>FF_PBC
FORCE_FIELD_SETUP_FEATURE Force Field Setup information
v1.0  0 0.000000 0.000000 0.000000 0.000000 0.000000 0.000000 NONE 0 0 0 0 1 0 0 0 0 0 0 0 0
