#	Name:			PISM00688
#	Creating user name:	baoopengkun
#	Creation time:		Sat Dec 08 17:26:50 2018

#	Modifying user name:	baoopengkun
#	Modification time:	Sat Dec 08 17:27:10 2018

@<TRIPOS>MOLECULE
PISM00688
   39    41     3     2     0
SMALL
GAST_HUCK


@<TRIPOS>ATOM
      1 C1         22.9635   32.3049  -10.5428 C.3       1 PHENYL      0.0792 
      2 C          21.8803   32.4306  -11.6345 C.ar      1 PHENYL     -0.0524 
      3 C          21.9725   31.6750  -12.8101 C.ar      1 PHENYL     -0.0524 
      4 C          21.0458   31.8462  -13.8425 C.ar      1 PHENYL     -0.0421 
      5 C          19.9909   32.7498  -13.6917 C.ar      1 PHENYL     -0.0425 
      6 C          19.8535   33.4598  -12.4962 C.ar      1 PHENYL     -0.0421 
      7 C          20.7809   33.2817  -11.4655 C.ar      1 PHENYL     -0.0524 
      8 C          24.3909   32.0574  -11.0678 C.ar      2 PHENYL     -0.0524 
      9 C          25.2755   31.2704  -10.3201 C.ar      2 PHENYL     -0.0524 
     10 C          26.5703   31.0163  -10.7813 C.ar      2 PHENYL     -0.0421 
     11 C          27.0000   31.5617  -11.9937 C.ar      2 PHENYL     -0.0425 
     12 C          26.1308   32.3628  -12.7385 C.ar      2 PHENYL     -0.0421 
     13 C          24.8354   32.6110  -12.2753 C.ar      2 PHENYL     -0.0524 
     14 C          23.1077   33.5599   -9.6646 C.ar      3 PHENYL     -0.0004 
     15 C          23.2000   33.4495   -8.2716 C.ar      3 PHENYL     -0.0333 
     16 C          23.3331   34.5883   -7.4717 C.ar      3 PHENYL     -0.0239 
     17 C          23.3923   35.8579   -8.0554 C.ar      3 PHENYL      0.0604 
     18 C          23.2983   35.9716   -9.4455 C.ar      3 PHENYL      0.0157 
     19 C          23.1575   34.8337  -10.2431 C.ar      3 PHENYL      0.1668 
     20 O20        22.5269   31.2025   -9.7281 O.3       1 PHENYL     -0.4496 
     21 C21        23.5569   37.1185   -7.1998 C.3       3 PHENYL      0.3861 
     22 H1         22.7657   30.9437  -12.9280 H         1 PHENYL      0.0769 
     23 H2         21.1449   31.2763  -14.7614 H         1 PHENYL      0.0673 
     24 H3         19.2794   32.8973  -14.4985 H         1 PHENYL      0.0782 
     25 H4         19.0246   34.1492  -12.3673 H         1 PHENYL      0.0673 
     26 H5         20.6330   33.8087  -10.5291 H         1 PHENYL      0.0769 
     27 H6         24.9624   30.8520   -9.3690 H         2 PHENYL      0.0769 
     28 H7         27.2429   30.3957  -10.1969 H         2 PHENYL      0.0673 
     29 H8         28.0048   31.3646  -12.3549 H         2 PHENYL      0.0782 
     30 H9         26.4626   32.7932  -13.6786 H         2 PHENYL      0.0673 
     31 H10        24.1810   33.2402  -12.8681 H         2 PHENYL      0.0769 
     32 H11        23.1717   32.4746   -7.7953 H         3 PHENYL      0.0794 
     33 H12        23.3896   34.4792   -6.3928 H         3 PHENYL      0.0841 
     34 H13        23.3322   36.9472   -9.9185 H         3 PHENYL      0.0868 
     35 F35        23.0688   34.9854  -11.5606 F         3 PHENYL     -0.1608 
     36 H15        22.4698   30.3869  -10.2157 H         1 PHENYL      0.1848 
     37 F37        22.3388   37.6978   -7.0333 F         3 PHENYL     -0.2135 
     38 F38        24.0800   36.8193   -5.9803 F         3 PHENYL     -0.2135 
     39 F39        24.3852   37.9964   -7.8270 F         3 PHENYL     -0.2135 
@<TRIPOS>BOND
     1    2    3 ar   
     2    2    7 ar   
     3    7    6 ar   
     4    6    5 ar   
     5    5    4 ar   
     6    4    3 ar   
     7    2    1 1    
     8    8    9 ar   
     9    8   13 ar   
    10   13   12 ar   
    11   12   11 ar   
    12   11   10 ar   
    13   10    9 ar   
    14    1    8 1    
    15   14   15 ar   
    16   14   19 ar   
    17   19   18 ar   
    18   18   17 ar   
    19   17   16 ar   
    20   16   15 ar   
    21    1   14 1    
    22    1   20 1    
    23   17   21 1    
    24    3   22 1    
    25    4   23 1    
    26    5   24 1    
    27    6   25 1    
    28    7   26 1    
    29    9   27 1    
    30   10   28 1    
    31   11   29 1    
    32   12   30 1    
    33   13   31 1    
    34   15   32 1    
    35   16   33 1    
    36   18   34 1    
    37   19   35 1    
    38   20   36 1    
    39   21   37 1    
    40   21   38 1    
    41   21   39 1    
@<TRIPOS>SUBSTRUCTURE
     1 PHENYL      2 PERM              0 ****  ****    2 ROOT 
     2 PHENYL      8 PERM              0 ****  ****    1  
     3 PHENYL     14 PERM              0 ****  ****    1  
@<TRIPOS>NORMAL
@<TRIPOS>FF_PBC
FORCE_FIELD_SETUP_FEATURE Force Field Setup information
v1.0  0 0.000000 0.000000 0.000000 0.000000 0.000000 0.000000 NONE 0 0 0 0 1 0 0 0 0 0 0 0 0
@<TRIPOS>RENDERING_ATTRS
ANTIALIASED_LINES 
1,2,3,4,5,6,7,8,9,10,11,12,13,14,15,16,17,18,19,20,21,22,23,24,25,26,27,28,29,30,31,32,33,34,35,36
