#	Name:			PISM00386
#	Creating user name:	baoopengkun
#	Creation time:		Sun Mar 31 16:15:39 2019

#	Modifying user name:	baoopengkun
#	Modification time:	Sun Mar 31 16:27:26 2019

@<TRIPOS>MOLECULE
PISM00386
   36    36     1     1     0
SMALL
GAST_HUCK


@<TRIPOS>ATOM
      1 C1         -2.7160    1.4748   -2.0615 C.3       1 <1>        -0.0430 
      2 C2         -3.1844    2.7114   -2.8834 C.3       1 <1>         0.0220 
      3 C3         -4.6756    2.8770   -2.7941 C.2       1 <1>         0.1602 
      4 C4         -5.4213    2.3330   -1.6499 C.2       1 <1>         0.0187 
      5 C5         -4.7955    1.7233   -0.6368 C.2       1 <1>        -0.0823 
      6 C6         -3.2913    1.5608   -0.6098 C.3       1 <1>         0.0314 
      7 C7         -3.2221    0.1695   -2.7516 C.3       1 <1>        -0.0710 
      8 C8         -1.1583    1.4393   -2.0397 C.3       1 <1>        -0.0710 
      9 O9         -5.2781    3.4673   -3.6760 O.2       1 <1>        -0.3544 
     10 O10        -2.9662    0.3403    0.0795 O.3       1 <1>        -0.4653 
     11 C11        -2.7247    2.7500    0.1357 C.2       1 <1>        -0.0864 
     12 C12        -1.6520    2.6665    0.9347 C.2       1 <1>        -0.0141 
     13 C13        -1.0657    3.8162    1.6630 C.2       1 <1>         0.0279 
     14 H1         -2.8967    2.5887   -3.9391 H         1 <1>         0.0480 
     15 C15        -0.5370    3.6110    2.8809 C.2       1 <1>         0.0683 
     16 C16         0.0671    4.6418    3.7593 C.2       1 <1>         0.2777 
     17 O17        -0.1018    5.8275    3.5363 O.2       1 <1>        -0.3438 
     18 O18         0.8051    4.3137    4.8251 O.3       1 <1>        -0.2911 
     19 H19        -5.3875    1.3448    0.1971 H         1 <1>         0.0567 
     20 H2         -2.7247    3.6399   -2.5140 H         1 <1>         0.0480 
     21 H3         -6.5054    2.4452   -1.6514 H         1 <1>         0.1129 
     22 H4         -2.8430    0.1007   -3.7826 H         1 <1>         0.0222 
     23 H5         -4.3201    0.1290   -2.7933 H         1 <1>         0.0222 
     24 H6         -2.8715   -0.7191   -2.2050 H         1 <1>         0.0222 
     25 H7         -0.8026    0.5966   -1.4274 H         1 <1>         0.0222 
     26 H8         -0.7377    2.3689   -1.6288 H         1 <1>         0.0222 
     27 H9         -0.7618    1.3158   -3.0592 H         1 <1>         0.0222 
     28 H10        -3.3097    0.3005    0.9661 H         1 <1>         0.1807 
     29 H11        -3.2247    3.7093    0.0034 H         1 <1>         0.0536 
     30 H12        -1.1753    1.6934    1.0605 H         1 <1>         0.1127 
     31 C31        -1.0634    5.1833    1.0146 C.3       1 <1>        -0.0120 
     32 H13        -0.5546    2.5962    3.2771 H         1 <1>         0.1015 
     33 H14         0.9276    3.3829    4.9623 H         1 <1>         0.2519 
     34 H15        -1.2995    5.1248   -0.0580 H         1 <1>         0.0431 
     35 H16        -0.0682    5.6464    1.0912 H         1 <1>         0.0431 
     36 H17        -1.8061    5.8312    1.5042 H         1 <1>         0.0431 
@<TRIPOS>BOND
     1    2    1 1    
     2    2    3 1    
     3    3    4 1    
     4    4    5 2    
     5    5    6 1    
     6    1    6 1    
     7    1    7 1    
     8    1    8 1    
     9    3    9 2    
    10    6   10 1    
    11    6   11 1    
    12   11   12 2    
    13   12   13 1    
    14    2   14 1    
    15   13   15 2    
    16   15   16 1    
    17   16   17 2    
    18   16   18 1    
    19    5   19 1    
    20    2   20 1    
    21    4   21 1    
    22    7   22 1    
    23    7   23 1    
    24    7   24 1    
    25    8   25 1    
    26    8   26 1    
    27    8   27 1    
    28   10   28 1    
    29   11   29 1    
    30   12   30 1    
    31   13   31 1    
    32   15   32 1    
    33   18   33 1    
    34   31   34 1    
    35   31   35 1    
    36   31   36 1    
@<TRIPOS>SUBSTRUCTURE
     1 ****        2 TEMP              0 ****  ****    0 ROOT 
@<TRIPOS>NORMAL
@<TRIPOS>FF_PBC
FORCE_FIELD_SETUP_FEATURE Force Field Setup information
v1.0  0 0.000000 0.000000 0.000000 0.000000 0.000000 0.000000 NONE 0 0 0 0 1 0 0 0 0 0 0 0 0
