#	Name:			PISM00191
#	Creating user name:	14062
#	Creation time:		Wed Jun 19 15:12:34 2019

#	Modifying user name:	14062
#	Modification time:	Wed Jun 19 15:14:08 2019

@<TRIPOS>MOLECULE
PISM00191
   27    28     1     1     0
SMALL
GAST_HUCK


@<TRIPOS>ATOM
      1 C1         -7.0648    0.1333   -0.4194 C.ar      1 BENZYL     -0.0701 
      2 C1         -5.7881    0.6551   -0.2115 C.ar      1 BENZYL     -0.0627 
      3 C2         -4.9358    0.8761   -1.2991 C.ar      1 BENZYL     -0.0239 
      4 C3         -5.3645    0.5876   -2.6052 C.ar      1 BENZYL     -0.0096 
      5 C4         -4.4271    0.6960   -3.6447 C.ar      1 BENZYL     -0.0546 
      6 C5         -3.1465    1.2061   -3.4143 C.ar      1 BENZYL     -0.0625 
      7 C6         -2.7588    1.5648   -2.1229 C.ar      1 BENZYL     -0.0629 
      8 C7         -3.6516    1.3843   -1.0653 C.ar      1 BENZYL     -0.0568 
      9 C9         -6.6995    0.1993   -2.8235 C.ar      1 BENZYL     -0.0096 
     10 C10        -7.5086   -0.1042   -1.7209 C.ar      1 BENZYL     -0.0580 
     11 C11        -7.3278    0.0966   -4.2294 C.3       1 BENZYL      0.0921 
     12 C12        -8.7748    0.5347   -4.2362 C.2       1 BENZYL      0.2466 
     13 O13        -9.0878    1.7082   -4.3617 O.2       1 BENZYL     -0.3669 
     14 O14        -9.6943   -0.4231   -4.1065 O.3       1 BENZYL     -0.2909 
     15 C15        -7.1630   -1.3430   -4.7841 C.3       1 BENZYL     -0.0337 
     16 H1         -7.7098   -0.0844    0.4268 H         1 BENZYL      0.0596 
     17 H2         -5.4684    0.8801    0.8016 H         1 BENZYL      0.0546 
     18 H3         -4.6550    0.3825   -4.6551 H         1 BENZYL      0.0628 
     19 H4         -2.4494    1.3226   -4.2390 H         1 BENZYL      0.0602 
     20 H5         -1.7705    1.9771   -1.9425 H         1 BENZYL      0.0616 
     21 H6         -3.3331    1.6432   -0.0600 H         1 BENZYL      0.0609 
     22 H7         -8.4968   -0.5294   -1.8576 H         1 BENZYL      0.0535 
     23 H8         -6.8530    0.8132   -4.9161 H         1 BENZYL      0.0720 
     24 H9        -10.5726   -0.0589   -4.1246 H         1 BENZYL      0.2541 
     25 H10        -7.6048   -1.4173   -5.7901 H         1 BENZYL      0.0281 
     26 H11        -7.6669   -2.0643   -4.1224 H         1 BENZYL      0.0281 
     27 H12        -6.0998   -1.6194   -4.8466 H         1 BENZYL      0.0281 
@<TRIPOS>BOND
     1    2    3 ar   
     2    3    4 ar   
     3    3    8 ar   
     4    8    7 ar   
     5    7    6 ar   
     6    6    5 ar   
     7    5    4 ar   
     8    2    1 ar   
     9    4    9 ar   
    10    9   10 ar   
    11    1   10 ar   
    12    9   11 1    
    13   11   12 1    
    14   12   13 2    
    15   12   14 1    
    16   11   15 1    
    17    1   16 1    
    18    2   17 1    
    19    5   18 1    
    20    6   19 1    
    21    7   20 1    
    22    8   21 1    
    23   10   22 1    
    24   11   23 1    
    25   14   24 1    
    26   15   25 1    
    27   15   26 1    
    28   15   27 1    
@<TRIPOS>SUBSTRUCTURE
     1 BENZYL      2 PERM              0 ****  ****    0 ROOT 
@<TRIPOS>NORMAL
@<TRIPOS>FF_PBC
FORCE_FIELD_SETUP_FEATURE Force Field Setup information
v1.0  0 0.000000 0.000000 0.000000 0.000000 0.000000 0.000000 NONE 0 0 0 0 1 0 0 0 0 0 0 0 0
