#	Name:			PISM00409
#	Creating user name:	malab
#	Creation time:		Wed Apr 10 23:13:47 2019

#	Modifying user name:	malab
#	Modification time:	Wed Apr 10 23:18:22 2019

@<TRIPOS>MOLECULE
PISM00409
   38    38     1     2     0
SMALL
USER_CHARGES


@<TRIPOS>ATOM
      1 C1        -12.6082   -0.1038    7.7269 C.3       1 <1>         0.0000 
      2 C2        -12.2077    1.3271    8.1899 C.3       1 <1>         0.0000 
      3 C3        -12.4829    1.4845    9.6592 C.2       1 <1>         0.0000 
      4 C4        -13.5752    0.7353   10.3011 C.2       1 <1>         0.0000 
      5 C5        -14.3426   -0.1142    9.6061 C.2       1 <1>         0.0000 
      6 C6        -14.0999   -0.3492    8.1262 C.3       1 <1>         0.0000 
      7 C7        -11.6541   -1.1414    8.3957 C.3       1 <1>         0.0000 
      8 C8        -12.4409   -0.1909    6.1813 C.3       1 <1>         0.0000 
      9 O9        -11.7971    2.2390   10.3291 O.2       1 <1>         0.0000 
     10 C10       -15.4922   -0.8570   10.2538 C.3       1 <1>         0.0000 
     11 H1        -12.7843    2.0949    7.6527 H         1 <1>         0.0000 
     12 H2        -11.1374    1.5049    7.9939 H         1 <1>         0.0000 
     13 H3        -13.7401    0.9012   11.3657 H         1 <1>         0.0000 
     14 C14       -14.5652   -1.7242    7.6907 C.2       1 <1>         0.0000 
     15 H4        -14.7135    0.4140    7.6226 H         1 <1>         0.0000 
     16 H5        -11.7783   -2.1424    7.9614 H         1 <1>         0.0000 
     17 H6        -11.8298   -1.2123    9.4787 H         1 <1>         0.0000 
     18 H7        -10.6034   -0.8525    8.2420 H         1 <1>         0.0000 
     19 H8        -12.6834   -1.2000    5.8139 H         1 <1>         0.0000 
     20 H9        -11.4020    0.0356    5.8977 H         1 <1>         0.0000 
     21 H10       -13.1022    0.5273    5.6723 H         1 <1>         0.0000 
     22 H11       -16.4165   -0.6471    9.6960 H         1 <1>         0.0000 
     23 H12       -15.6518   -0.5497   11.2993 H         1 <1>         0.0000 
     24 H13       -15.3085   -1.9425   10.2505 H         1 <1>         0.0000 
     25 C25       -15.5585   -1.9242    6.8142 C.2       1 <1>         0.0000 
     26 H26       -16.0930   -1.0829    6.3741 H         1 <1>         0.0000 
     27 H14       -14.0756   -2.6019    8.1115 H         1 <1>         0.0000 
     28 H15       -17.4575   -4.7381    6.2811 H         1 <1>         0.0000 
     29 H16       -18.9054   -1.3436    8.1017 H         1 <1>         0.0000 
     30 H17       -14.6042   -4.9313    6.4029 H         1 <1>         0.0000 
     31 H18       -14.0821   -3.5589    5.3841 H         1 <1>         0.0000 
     32 H19       -15.3834   -4.6315    4.8178 H         1 <1>         0.0000 
     33 C33       -15.9732   -3.2779    6.4004 C.2       1 <1>         0.0000 
     34 C39       -17.2185   -3.7283    6.6181 C.2       1 <1>         0.0000 
     35 C40       -18.3164   -2.9951    7.2846 C.2       1 <1>         0.0000 
     36 O41       -19.3835   -3.5626    7.4601 O.2       1 <1>         0.0000 
     37 O42       -18.1392   -1.7313    7.6913 O.3       1 <1>         0.0000 
     38 C43       -14.9512   -4.1515    5.7097 C.3       1 <1>         0.0000 
@<TRIPOS>BOND
     1    2    1 1    
     2    2    3 1    
     3    3    4 1    
     4    4    5 2    
     5    5    6 1    
     6    1    6 1    
     7    1    7 1    
     8    1    8 1    
     9    3    9 2    
    10    5   10 1    
    11    2   11 1    
    12    2   12 1    
    13    4   13 1    
    14    6   14 1    
    15    6   15 1    
    16    7   16 1    
    17    7   17 1    
    18    7   18 1    
    19    8   19 1    
    20    8   20 1    
    21    8   21 1    
    22   10   22 1    
    23   10   23 1    
    24   10   24 1    
    25   14   25 2    
    26   25   26 1    
    27   14   27 1    
    28   34   28 1    
    29   37   29 1    
    30   38   30 1    
    31   38   31 1    
    32   38   32 1    
    33   25   33 1    
    34   33   34 2    
    35   34   35 1    
    36   35   36 2    
    37   35   37 1    
    38   33   38 1    
@<TRIPOS>SUBSTRUCTURE
     1 ****        2 TEMP              0 ****  ****    0 ROOT 
@<TRIPOS>NORMAL
@<TRIPOS>FF_PBC
FORCE_FIELD_SETUP_FEATURE Force Field Setup information
v1.0  0 0.000000 0.000000 0.000000 0.000000 0.000000 0.000000 NONE 0 0 0 0 0 0 0 0 0 0 0 0 0
@<TRIPOS>RENDERING_ATTRS
ANTIALIASED_LINES 
1,2,3,4,5,6,7,8,9,10,14,25,26,33
