#	Name:			PISM00822
#	Creating user name:	baoopengkun
#	Creation time:		Fri Nov 30 17:53:41 2018

#	Modifying user name:	baoopengkun
#	Modification time:	Fri Nov 30 17:59:26 2018

@<TRIPOS>MOLECULE
PISM00822
   35    36     1     2     0
SMALL
GAST_HUCK


@<TRIPOS>ATOM
      1 C1         -9.5525    5.1711   10.0984 C.ar      1 <1>        -0.0714 
      2 C2         -9.9726    5.3864   11.4144 C.ar      1 <1>        -0.0389 
      3 C3        -10.7405    4.4188   12.0743 C.ar      1 <1>         0.0824 
      4 C4        -11.0896    3.2459   11.4002 C.ar      1 <1>        -0.0389 
      5 C5        -10.6848    3.0380   10.0786 C.ar      1 <1>        -0.0714 
      6 C6         -9.8992    3.9945    9.4260 C.ar      1 <1>        -0.0380 
      7 O7        -11.1677    4.6001   13.3933 O.3       1 <1>        -0.3363 
      8 H1         -8.9512    5.9242    9.5980 H         1 <1>         0.0535 
      9 C9         -9.4197    3.7912    8.0037 C.2       1 <1>         0.0758 
     10 C10        -9.4576    4.9035    7.0277 C.2       1 <1>         0.2383 
     11 O11       -10.5479    5.6589    6.8024 O.3       1 <1>        -0.2865 
     12 C12       -11.7568    5.2913    7.4953 C.3       1 <1>         0.0638 
     13 O13        -8.4538    5.1252    6.3719 O.2       1 <1>        -0.3769 
     14 C14        -8.9221    2.6134    7.6038 C.2       1 <1>         0.1006 
     15 O15        -8.8356    1.5917    8.4693 O.3       1 <1>        -0.2533 
     16 C16        -8.2216    0.4053    7.9334 C.3       1 <1>         0.2446 
     17 C17        -6.7500    0.6335    7.6671 C.2       1 <1>         0.0002 
     18 C18        -6.0061   -0.1205    8.4742 C.2       1 <1>         0.0294 
     19 C19        -6.9908   -0.8542    9.2589 C.2       1 <1>         0.2496 
     20 O20        -8.2596   -0.5962    8.9692 O.3       1 <1>        -0.2294 
     21 C21        -4.5075   -0.2119    8.5683 C.3       1 <1>        -0.0323 
     22 O22        -6.6737   -1.6572   10.1192 O.2       1 <1>        -0.3691 
     23 H2         -9.6965    6.3083   11.9158 H         1 <1>         0.0531 
     24 H3        -11.6820    2.4945   11.9118 H         1 <1>         0.0531 
     25 H4        -10.9937    2.1337    9.5647 H         1 <1>         0.0535 
     26 H5        -10.8705    5.4087   13.7945 H         1 <1>         0.2467 
     27 H6        -12.5648    5.8899    7.0499 H         1 <1>         0.0574 
     28 H7        -11.7211    5.5435    8.5641 H         1 <1>         0.0574 
     29 H8        -12.0107    4.2276    7.3623 H         1 <1>         0.0574 
     30 H9         -8.5925    2.5350    6.5643 H         1 <1>         0.1284 
     31 H10        -8.7515    0.0142    7.0481 H         1 <1>         0.1224 
     32 H11        -6.3471    1.3208    6.9242 H         1 <1>         0.0707 
     33 H12        -4.0226    0.4572    7.8417 H         1 <1>         0.0347 
     34 H13        -4.1920   -1.2468    8.3689 H         1 <1>         0.0347 
     35 H14        -4.1891    0.0697    9.5830 H         1 <1>         0.0347 
@<TRIPOS>BOND
     1    2    1 ar   
     2    2    3 ar   
     3    3    4 ar   
     4    4    5 ar   
     5    5    6 ar   
     6    1    6 ar   
     7    3    7 1    
     8    1    8 1    
     9    6    9 1    
    10    9   10 1    
    11   10   11 1    
    12   11   12 1    
    13   10   13 2    
    14    9   14 2    
    15   14   15 1    
    16   15   16 1    
    17   16   17 1    
    18   17   18 2    
    19   18   19 1    
    20   19   20 1    
    21   16   20 1    
    22   18   21 1    
    23   19   22 2    
    24    2   23 1    
    25    4   24 1    
    26    5   25 1    
    27    7   26 1    
    28   12   27 1    
    29   12   28 1    
    30   12   29 1    
    31   14   30 1    
    32   16   31 1    
    33   17   32 1    
    34   21   33 1    
    35   21   34 1    
    36   21   35 1    
@<TRIPOS>SUBSTRUCTURE
     1 ****        2 TEMP              0 ****  ****    0 ROOT 
@<TRIPOS>NORMAL
@<TRIPOS>FF_PBC
FORCE_FIELD_SETUP_FEATURE Force Field Setup information
v1.0  0 0.000000 0.000000 0.000000 0.000000 0.000000 0.000000 NONE 0 0 0 0 1 0 0 0 0 0 0 0 0
@<TRIPOS>RENDERING_ATTRS
ANTIALIASED_LINES 
*
