#	Name:			PISM01056.1
#	Creating user name:	malab
#	Creation time:		Thu Jul 04 18:27:40 2019

#	Modifying user name:	malab
#	Modification time:	Thu Jul 04 18:38:20 2019

@<TRIPOS>MOLECULE
PISM01056.1
   49    50     1     1     0
SMALL
GAST_HUCK


@<TRIPOS>ATOM
      1 C1         -0.1141    7.7911   38.6000 C.3       1 <1>        -0.1024 
      2 C2         -0.5708    9.0561   39.3872 C.3       1 <1>        -0.1056 
      3 C3         -2.0094    9.4713   39.0085 C.3       1 <1>        -0.0398 
      4 C4         -2.0331    9.8221   37.5030 C.3       1 <1>         0.0378 
      5 C5         -1.3314    8.8018   36.6357 C.2       1 <1>         0.0467 
      6 C6         -0.4734    7.8899   37.1274 C.2       1 <1>        -0.0677 
      7 C7          1.4254    7.6424   38.7921 C.3       1 <1>        -0.1223 
      8 C8         -0.8067    6.5054   39.1443 C.3       1 <1>        -0.1223 
      9 O9         -1.9658   10.2508   34.8108 O.3       1 <1>        -0.3587 
     10 C10         0.1457    6.9144   36.2092 C.2       1 <1>        -0.0854 
     11 C11        -0.5876    5.9700   35.6101 C.2       1 <1>        -0.0661 
     12 C12        -0.0246    4.9788   34.6706 C.2       1 <1>         0.0819 
     13 C13        -1.6623    8.8847   35.1582 C.3       1 <1>         0.1333 
     14 H1          0.0956    9.9022   39.1509 H         1 <1>         0.0057 
     15 C15        -0.7002    4.7291   33.5409 C.2       1 <1>         0.1117 
     16 C16         1.2530    4.2749   34.9386 C.2       1 <1>         0.2420 
     17 O17        -1.8413    5.3945   33.2988 O.3       1 <1>        -0.2456 
     18 C18        -2.4534    5.1070   32.0289 C.3       1 <1>         0.2473 
     19 O19        -3.6475    5.9118   31.9793 O.3       1 <1>        -0.2289 
     20 C20        -3.4405    6.7932   31.0094 C.2       1 <1>         0.2497 
     21 O21        -4.2513    7.6646   30.7478 O.2       1 <1>        -0.3691 
     22 C22        -2.1870    6.6407   30.2805 C.2       1 <1>         0.0294 
     23 C23        -1.5967    5.6145   30.8899 C.2       1 <1>         0.0008 
     24 C24        -1.6791    7.4496   29.1182 C.3       1 <1>        -0.0323 
     25 H2         -0.5091    8.8757   40.4728 H         1 <1>         0.0057 
     26 H3         -2.3192   10.3494   39.6005 H         1 <1>         0.0307 
     27 H4         -2.7204    8.6600   39.2247 H         1 <1>         0.0307 
     28 H5         -1.5231   10.7861   37.3447 H         1 <1>         0.0724 
     29 H6         -3.0832    9.9337   37.1875 H         1 <1>         0.0724 
     30 H7          1.6788    7.6564   39.8635 H         1 <1>         0.0017 
     31 H8          1.9530    8.4734   38.2988 H         1 <1>         0.0017 
     32 H9          1.8054    6.6981   38.3753 H         1 <1>         0.0017 
     33 H10        -0.3974    5.6081   38.6560 H         1 <1>         0.0017 
     34 H11        -1.8893    6.5109   38.9552 H         1 <1>         0.0017 
     35 H12        -0.6414    6.4052   40.2278 H         1 <1>         0.0017 
     36 H13        -2.2103   10.3686   33.8964 H         1 <1>         0.2178 
     37 H14         1.2171    6.9812   36.0204 H         1 <1>         0.0435 
     38 H15        -1.6585    5.9306   35.8143 H         1 <1>         0.0568 
     39 H16        -2.5400    8.2438   34.9704 H         1 <1>         0.1028 
     40 H17        -0.8256    8.5361   34.5302 H         1 <1>         0.1028 
     41 O41         1.8499    3.7487   34.0149 O.2       1 <1>        -0.3738 
     42 O42         1.7756    4.1838   36.1652 O.3       1 <1>        -0.2980 
     43 H43         1.2419    4.5584   36.8545 H         1 <1>         0.2515 
     44 H18        -0.2927    3.9896   32.8468 H         1 <1>         0.1365 
     45 H19        -2.7273    4.0441   31.9162 H         1 <1>         0.1231 
     46 H20        -0.6270    5.2102   30.6021 H         1 <1>         0.0707 
     47 H21        -0.6590    7.8056   29.3262 H         1 <1>         0.0347 
     48 H22        -2.3310    8.3188   28.9435 H         1 <1>         0.0347 
     49 H23        -1.6660    6.8252   28.2124 H         1 <1>         0.0347 
@<TRIPOS>BOND
     1    2    1 1    
     2    2    3 1    
     3    3    4 1    
     4    4    5 1    
     5    5    6 2    
     6    1    6 1    
     7    1    7 1    
     8    1    8 1    
     9   13    9 1    
    10    6   10 1    
    11   10   11 2    
    12   11   12 1    
    13    5   13 1    
    14    2   14 1    
    15   12   15 2    
    16   12   16 1    
    17   15   17 1    
    18   17   18 1    
    19   18   19 1    
    20   19   20 1    
    21   20   21 2    
    22   20   22 1    
    23   22   23 2    
    24   18   23 1    
    25   22   24 1    
    26    2   25 1    
    27    3   26 1    
    28    3   27 1    
    29    4   28 1    
    30    4   29 1    
    31    7   30 1    
    32    7   31 1    
    33    7   32 1    
    34    8   33 1    
    35    8   34 1    
    36    8   35 1    
    37    9   36 1    
    38   10   37 1    
    39   11   38 1    
    40   13   39 1    
    41   13   40 1    
    42   16   41 2    
    43   16   42 1    
    44   42   43 1    
    45   15   44 1    
    46   18   45 1    
    47   23   46 1    
    48   24   47 1    
    49   24   48 1    
    50   24   49 1    
@<TRIPOS>SUBSTRUCTURE
     1 ****        2 TEMP              0 ****  ****    0 ROOT 
@<TRIPOS>NORMAL
@<TRIPOS>FF_PBC
FORCE_FIELD_SETUP_FEATURE Force Field Setup information
v1.0  0 0.000000 0.000000 0.000000 0.000000 0.000000 0.000000 NONE 0 0 0 0 1 0 0 0 0 0 0 0 0
