#	Name:			PISM00346
#	Creating user name:	baoopengkun
#	Creation time:		Sun Mar 31 18:46:55 2019

#	Modifying user name:	baoopengkun
#	Modification time:	Sun Mar 31 18:54:09 2019

@<TRIPOS>MOLECULE
PISM00346
   79    79     1     2     0
SMALL
GAST_HUCK


@<TRIPOS>ATOM
      1 C1          7.9384   -5.7625  -12.1945 C.3       1 <1>        -0.0486 
      2 C2          7.3071   -7.0195  -11.5289 C.3       1 <1>         0.0225 
      3 C3          6.5740   -6.6182  -10.2808 C.2       1 <1>         0.1783 
      4 C4          5.9887   -5.2728  -10.1371 C.2       1 <1>         0.1080 
      5 C5          6.0876   -4.3557  -11.1117 C.2       1 <1>        -0.0545 
      6 C6          6.8323   -4.6700  -12.3941 C.3       1 <1>         0.0241 
      7 C7          9.0956   -5.2466  -11.2786 C.3       1 <1>        -0.0722 
      8 C8          8.5450   -6.1646  -13.5711 C.3       1 <1>        -0.0722 
      9 O9          6.4673   -7.4240   -9.3696 O.2       1 <1>        -0.3530 
     10 S10         5.1453   -4.9151   -8.6032 S.3       1 <1>        -0.0484 
     11 C11         5.4713   -2.9744  -11.0245 C.3       1 <1>        -0.0414 
     12 C12         5.7548   -5.1357  -13.3513 C.2       1 <1>        -0.0993 
     13 C13         5.5773   -4.6365  -14.5822 C.2       1 <1>        -0.0245 
     14 C14         4.5236   -5.1348  -15.4918 C.2       1 <1>         0.0167 
     15 C15         4.3615   -6.6316  -15.6408 C.3       1 <1>        -0.0145 
     16 C16         3.7254   -4.3060  -16.1842 C.2       1 <1>         0.0580 
     17 C17         3.7368   -2.8237  -16.1258 C.2       1 <1>         0.2688 
     18 O18         4.4152   -2.2346  -15.3035 O.2       1 <1>        -0.3498 
     19 O19         3.0010   -2.0806  -16.9592 O.3       1 <1>        -0.2928 
     20 O20         7.4038   -3.4645  -12.9335 O.3       1 <1>        -0.4725 
     21 C21         6.6104   -4.2117   -7.7793 C.3       1 <1>         0.0189 
     22 C22         6.1766   -3.6397   -6.4060 C.3       1 <1>        -0.0402 
     23 C23         7.3782   -3.0081   -5.6525 C.3       1 <1>        -0.0520 
     24 C24         6.9337   -2.4066   -4.2913 C.3       1 <1>        -0.0530 
     25 C25         8.1348   -1.7828   -3.5294 C.3       1 <1>        -0.0531 
     26 C26         7.6850   -1.1614   -2.1789 C.3       1 <1>        -0.0531 
     27 C27         8.8861   -0.5419   -1.4135 C.3       1 <1>        -0.0531 
     28 C28         8.4320    0.0917   -0.0702 C.3       1 <1>        -0.0531 
     29 C29         9.6326    0.7027    0.7028 C.3       1 <1>        -0.0531 
     30 C30         9.1743    1.3406    2.0428 C.3       1 <1>        -0.0531 
     31 C31        10.3754    1.9375    2.8258 C.3       1 <1>        -0.0533 
     32 C32         9.9138    2.5855    4.1595 C.3       1 <1>        -0.0559 
     33 C33        11.1127    3.1865    4.9385 C.3       1 <1>        -0.0653 
     34 H1          8.0936   -7.7461  -11.2711 H         1 <1>         0.0479 
     35 H2          6.5997   -7.5356  -12.1933 H         1 <1>         0.0479 
     36 H3          9.7809   -6.0658  -11.0142 H         1 <1>         0.0220 
     37 H4          8.7065   -4.8164  -10.3440 H         1 <1>         0.0220 
     38 H5          9.7024   -4.4816  -11.7845 H         1 <1>         0.0220 
     39 H6          7.7865   -6.6162  -14.2278 H         1 <1>         0.0220 
     40 H7          9.3571   -6.8948  -13.4349 H         1 <1>         0.0220 
     41 H8          8.9559   -5.2793  -14.0802 H         1 <1>         0.0220 
     42 H9          5.0454   -2.6972  -12.0012 H         1 <1>         0.0386 
     43 H10         6.2458   -2.2401  -10.7603 H         1 <1>         0.0386 
     44 H11         4.6621   -2.9011  -10.2850 H         1 <1>         0.0386 
     45 H12         5.0743   -5.9187  -13.0178 H         1 <1>         0.0493 
     46 H13         6.2237   -3.8388  -14.9477 H         1 <1>         0.1042 
     47 H14         4.2269   -6.9102  -16.6975 H         1 <1>         0.0429 
     48 H15         3.4825   -6.9648  -15.0686 H         1 <1>         0.0429 
     49 H16         5.2485   -7.1645  -15.2647 H         1 <1>         0.0429 
     50 H17         2.9899   -4.7609  -16.8465 H         1 <1>         0.0917 
     51 H18         2.4846   -2.5686  -17.5879 H         1 <1>         0.2516 
     52 H19         8.0050   -3.0196  -12.3485 H         1 <1>         0.1785 
     53 H20         7.0347   -3.4119   -8.4070 H         1 <1>         0.0422 
     54 H21         7.3628   -5.0064   -7.6523 H         1 <1>         0.0422 
     55 H22         5.7430   -4.4505   -5.7974 H         1 <1>         0.0276 
     56 H23         5.4001   -2.8737   -6.5676 H         1 <1>         0.0276 
     57 H24         7.8208   -2.2120   -6.2736 H         1 <1>         0.0266 
     58 H25         8.1465   -3.7800   -5.4807 H         1 <1>         0.0266 
     59 H26         6.4808   -3.1987   -3.6723 H         1 <1>         0.0265 
     60 H27         6.1722   -1.6293   -4.4688 H         1 <1>         0.0265 
     61 H28         8.5962   -1.0000   -4.1539 H         1 <1>         0.0265 
     62 H29         8.8900   -2.5632   -3.3393 H         1 <1>         0.0265 
     63 H30         7.2192   -1.9421   -1.5553 H         1 <1>         0.0265 
     64 H31         6.9328   -0.3786   -2.3712 H         1 <1>         0.0265 
     65 H32         9.3579    0.2329   -2.0400 H         1 <1>         0.0265 
     66 H33         9.6340   -1.3266   -1.2130 H         1 <1>         0.0265 
     67 H34         7.9531   -0.6811    0.5535 H         1 <1>         0.0265 
     68 H35         7.6894    0.8810   -0.2726 H         1 <1>         0.0265 
     69 H36        10.1151    1.4728    0.0786 H         1 <1>         0.0265 
     70 H37        10.3727   -0.0879    0.9093 H         1 <1>         0.0265 
     71 H38         8.6815    0.5737    2.6627 H         1 <1>         0.0265 
     72 H39         8.4425    2.1383    1.8339 H         1 <1>         0.0265 
     73 H40        10.8738    2.6997    2.2043 H         1 <1>         0.0265 
     74 H41        11.1033    1.1384    3.0423 H         1 <1>         0.0265 
     75 H42         9.4198    1.8257    4.7879 H         1 <1>         0.0263 
     76 H43         9.1846    3.3856    3.9484 H         1 <1>         0.0263 
     77 H44        11.8467    2.4018    5.1792 H         1 <1>         0.0230 
     78 H45        10.7639    3.6407    5.8796 H         1 <1>         0.0230 
     79 H46        11.6101    3.9641    4.3378 H         1 <1>         0.0230 
@<TRIPOS>BOND
     1    2    1 1    
     2    2    3 1    
     3    3    4 1    
     4    4    5 2    
     5    5    6 1    
     6    1    6 1    
     7    1    7 1    
     8    1    8 1    
     9    3    9 2    
    10    4   10 1    
    11    5   11 1    
    12    6   12 1    
    13   12   13 2    
    14   13   14 1    
    15   14   15 1    
    16   14   16 2    
    17   16   17 1    
    18   17   18 2    
    19   17   19 1    
    20    6   20 1    
    21   10   21 1    
    22   21   22 1    
    23   22   23 1    
    24   23   24 1    
    25   24   25 1    
    26   25   26 1    
    27   26   27 1    
    28   27   28 1    
    29   28   29 1    
    30   29   30 1    
    31   30   31 1    
    32   31   32 1    
    33   32   33 1    
    34    2   34 1    
    35    2   35 1    
    36    7   36 1    
    37    7   37 1    
    38    7   38 1    
    39    8   39 1    
    40    8   40 1    
    41    8   41 1    
    42   11   42 1    
    43   11   43 1    
    44   11   44 1    
    45   12   45 1    
    46   13   46 1    
    47   15   47 1    
    48   15   48 1    
    49   15   49 1    
    50   16   50 1    
    51   19   51 1    
    52   20   52 1    
    53   21   53 1    
    54   21   54 1    
    55   22   55 1    
    56   22   56 1    
    57   23   57 1    
    58   23   58 1    
    59   24   59 1    
    60   24   60 1    
    61   25   61 1    
    62   25   62 1    
    63   26   63 1    
    64   26   64 1    
    65   27   65 1    
    66   27   66 1    
    67   28   67 1    
    68   28   68 1    
    69   29   69 1    
    70   29   70 1    
    71   30   71 1    
    72   30   72 1    
    73   31   73 1    
    74   31   74 1    
    75   32   75 1    
    76   32   76 1    
    77   33   77 1    
    78   33   78 1    
    79   33   79 1    
@<TRIPOS>SUBSTRUCTURE
     1 ****        2 TEMP              0 ****  ****    0 ROOT 
@<TRIPOS>NORMAL
@<TRIPOS>FF_PBC
FORCE_FIELD_SETUP_FEATURE Force Field Setup information
v1.0  0 0.000000 0.000000 0.000000 0.000000 0.000000 0.000000 NONE 0 0 0 0 1 0 0 0 0 0 0 0 0
@<TRIPOS>RENDERING_ATTRS
ANTIALIASED_LINES 
1,2,3,4,5,6,7,8,9,10,11,12,13,14,15,16,17,18,19,20,21,22,23,24,25,26,27,28,29,30,31,32,33
