#	Name:			PISM00706
#	Creating user name:	baoopengkun
#	Creation time:		Thu Jan 24 22:56:54 2019

#	Modifying user name:	baoopengkun
#	Modification time:	Thu Jan 24 22:58:31 2019

@<TRIPOS>MOLECULE
PISM00706
   32    33     1     1     0
SMALL
GAST_HUCK


@<TRIPOS>ATOM
      1 Cl1        28.2771   -3.7109  -25.0068 Cl        1 <1>        -0.0730 
      2 C2         28.0164   -5.1209  -26.0155 C.ar      1 <1>         0.0461 
      3 C3         28.8974   -6.2008  -25.9181 C.ar      1 <1>        -0.0350 
      4 C4         28.7185   -7.3271  -26.7238 C.ar      1 <1>         0.0535 
      5 C5         27.6467   -7.3767  -27.6187 C.ar      1 <1>         0.0569 
      6 C6         26.7455   -6.3111  -27.6916 C.ar      1 <1>        -0.0400 
      7 C7         26.9376   -5.1670  -26.9071 C.ar      1 <1>        -0.0263 
      8 C8         25.9848   -3.9699  -27.0145 C.3       1 <1>        -0.0295 
      9 Cl9        29.8368   -8.6702  -26.6075 Cl        1 <1>        -0.0711 
     10 C10        27.4722   -8.5871  -28.5071 C.2       1 <1>         0.2038 
     11 O11        26.7060   -9.4577  -28.1309 O.2       1 <1>        -0.3847 
     12 N12        28.1369   -8.7085  -29.6772 N.am      1 <1>        -0.2832 
     13 C13        28.9794   -7.6396  -30.2149 C.3       1 <1>         0.0415 
     14 C14        28.1174   -6.7965  -31.1856 C.3       1 <1>        -0.0418 
     15 C15        30.1639   -8.2715  -30.9929 C.3       1 <1>        -0.0183 
     16 C16        31.4318   -7.4044  -31.1571 C.3       1 <1>        -0.0478 
     17 C17        31.4271   -8.5868  -30.1623 C.3       1 <1>        -0.0478 
     18 H1         29.7223   -6.1653  -25.2144 H         1 <1>         0.0623 
     19 H2         25.8972   -6.3827  -28.3640 H         1 <1>         0.0607 
     20 H3         25.1987   -4.1316  -27.7669 H         1 <1>         0.0393 
     21 H4         26.5588   -3.0751  -27.2981 H         1 <1>         0.0393 
     22 H5         25.5049   -3.7964  -26.0396 H         1 <1>         0.0393 
     23 H6         27.9884   -9.5336  -30.2253 H         1 <1>         0.1848 
     24 H7         29.3723   -6.9764  -29.4270 H         1 <1>         0.0555 
     25 H8         28.7083   -5.9765  -31.6212 H         1 <1>         0.0252 
     26 H9         27.2562   -6.3671  -30.6529 H         1 <1>         0.0252 
     27 H10        27.7419   -7.4329  -32.0009 H         1 <1>         0.0252 
     28 H11        29.9576   -8.9622  -31.8264 H         1 <1>         0.0323 
     29 H12        31.4291   -6.3930  -30.7208 H         1 <1>         0.0269 
     30 H13        32.0261   -7.5490  -32.0733 H         1 <1>         0.0269 
     31 H14        31.4262   -8.3238  -29.0935 H         1 <1>         0.0269 
     32 H15        32.0054   -9.4776  -30.4538 H         1 <1>         0.0269 
@<TRIPOS>BOND
     1    2    1 1    
     2    2    3 ar   
     3    3    4 ar   
     4    4    5 ar   
     5    5    6 ar   
     6    6    7 ar   
     7    2    7 ar   
     8    7    8 1    
     9    4    9 1    
    10    5   10 1    
    11   10   11 2    
    12   10   12 am   
    13   12   13 1    
    14   13   14 1    
    15   13   15 1    
    16   15   16 1    
    17   16   17 1    
    18   15   17 1    
    19    3   18 1    
    20    6   19 1    
    21    8   20 1    
    22    8   21 1    
    23    8   22 1    
    24   12   23 1    
    25   13   24 1    
    26   14   25 1    
    27   14   26 1    
    28   14   27 1    
    29   15   28 1    
    30   16   29 1    
    31   16   30 1    
    32   17   31 1    
    33   17   32 1    
@<TRIPOS>SUBSTRUCTURE
     1 ****        2 TEMP              0 ****  ****    0 ROOT 
@<TRIPOS>NORMAL
@<TRIPOS>FF_PBC
FORCE_FIELD_SETUP_FEATURE Force Field Setup information
v1.0  0 0.000000 0.000000 0.000000 0.000000 0.000000 0.000000 NONE 0 0 0 0 1 0 0 0 0 0 0 0 0
