#	Name:			PISM00886
#	Creating user name:	baoopengkun
#	Creation time:		Fri Dec 14 09:30:18 2018

#	Modifying user name:	baoopengkun
#	Modification time:	Fri Dec 14 09:41:37 2018

@<TRIPOS>MOLECULE
PISM00886
   32    34     1     1     0
SMALL
GAST_HUCK


@<TRIPOS>ATOM
      1 C1         10.5059   14.4218   -7.6469 C.ar      1 <1>        -0.0389 
      2 C2         10.6093   15.7666   -7.2781 C.ar      1 <1>         0.0322 
      3 C3         10.0067   16.1956   -6.0907 C.ar      1 <1>        -0.0389 
      4 C4          9.3026   15.2897   -5.2919 C.ar      1 <1>        -0.0308 
      5 C5          9.1924   13.9447   -5.6617 C.ar      1 <1>         0.0123 
      6 C6          9.8023   13.5162   -6.8470 C.ar      1 <1>        -0.0308 
      7 C7          8.4141   13.0088   -4.7596 C.2       1 <1>         0.0984 
      8 N8          7.7688   13.4530   -3.5473 N.2       1 <1>        -0.2027 
      9 N9          7.2129   12.3273   -3.0697 N.2       1 <1>        -0.0753 
     10 N10         7.4711   11.2952   -3.8991 N.pl3     1 <1>        -0.1108 
     11 C11         8.1967   11.6969   -4.9054 C.2       1 <1>         0.1123 
     12 C12         7.0322    9.9312   -3.6603 C.3       1 <1>         0.2475 
     13 C13         5.6524    9.7616   -4.2472 C.2       1 <1>         0.0023 
     14 C14         5.6697    8.8579   -5.2249 C.2       1 <1>         0.0296 
     15 C15         7.0640    8.4305   -5.2707 C.2       1 <1>         0.2499 
     16 O16         7.8652    8.9966   -4.3766 O.3       1 <1>        -0.2279 
     17 O17         7.4758    7.6100   -6.0717 O.2       1 <1>        -0.3691 
     18 C18         4.5247    8.3948   -6.0837 C.3       1 <1>        -0.0323 
     19 F19        12.6986   16.4012   -8.1649 F         1 <1>        -0.2360 
     20 F20        11.2407   18.0235   -7.7799 F         1 <1>        -0.2360 
     21 C21        11.3801   16.7324   -8.1855 C.3       1 <1>         0.3603 
     22 F22        10.9153   16.6200   -9.4588 F         1 <1>        -0.2360 
     23 H1         10.9774   14.0794   -8.5634 H         1 <1>         0.0822 
     24 H2         10.0815   17.2333   -5.7809 H         1 <1>         0.0822 
     25 H3          8.8386   15.6406   -4.3751 H         1 <1>         0.0668 
     26 H4          9.7406   12.4823   -7.1647 H         1 <1>         0.0668 
     27 H5          8.5528   11.0600   -5.7130 H         1 <1>         0.1226 
     28 H6          7.0441    9.7060   -2.5816 H         1 <1>         0.1250 
     29 H7          4.7698   10.3092   -3.9181 H         1 <1>         0.0709 
     30 H8          3.9573    9.2613   -6.4552 H         1 <1>         0.0347 
     31 H9          3.8565    7.7529   -5.4906 H         1 <1>         0.0347 
     32 H10         4.9016    7.8209   -6.9437 H         1 <1>         0.0347 
@<TRIPOS>BOND
     1    2    1 ar   
     2    2    3 ar   
     3    3    4 ar   
     4    4    5 ar   
     5    5    6 ar   
     6    1    6 ar   
     7    5    7 1    
     8    7    8 1    
     9    8    9 2    
    10    9   10 1    
    11   10   11 1    
    12    7   11 2    
    13   10   12 1    
    14   12   13 1    
    15   13   14 2    
    16   14   15 1    
    17   15   16 1    
    18   12   16 1    
    19   15   17 2    
    20   14   18 1    
    21   21   19 1    
    22   21   20 1    
    23    2   21 1    
    24   21   22 1    
    25    1   23 1    
    26    3   24 1    
    27    4   25 1    
    28    6   26 1    
    29   11   27 1    
    30   12   28 1    
    31   13   29 1    
    32   18   30 1    
    33   18   31 1    
    34   18   32 1    
@<TRIPOS>SUBSTRUCTURE
     1 ****        2 TEMP              0 ****  ****    0 ROOT 
@<TRIPOS>NORMAL
@<TRIPOS>FF_PBC
FORCE_FIELD_SETUP_FEATURE Force Field Setup information
v1.0  0 0.000000 0.000000 0.000000 0.000000 0.000000 0.000000 NONE 0 0 0 0 1 0 0 0 0 0 0 0 0
