#	Name:			PISM00916.1
#	Creating user name:	baoopengkun
#	Creation time:		Fri Dec 14 10:31:16 2018

#	Modifying user name:	baoopengkun
#	Modification time:	Fri Dec 14 10:51:22 2018

@<TRIPOS>MOLECULE
PISM00916.1
   46    48     1     1     0
SMALL
GAST_HUCK


@<TRIPOS>ATOM
      1 C1         27.1721   15.0954  -15.0018 C.ar      1 <1>         0.0873 
      2 C2         28.5665   15.0446  -15.1233 C.ar      1 <1>        -0.0294 
      3 C3         29.3418   14.2572  -14.2579 C.ar      1 <1>        -0.0620 
      4 C4         28.7450   13.4938  -13.2460 C.ar      1 <1>        -0.0488 
      5 C5         27.3551   13.5405  -13.1447 C.ar      1 <1>         0.0636 
      6 C6         26.5887   14.3138  -14.0045 C.ar      1 <1>         0.0945 
      7 C7         25.1570   14.0823  -13.5915 C.2       1 <1>         0.2371 
      8 N8         25.1186   13.2359  -12.5444 N.am      1 <1>        -0.1423 
      9 C9         26.3724   12.8726  -12.2152 C.2       1 <1>         0.2414 
     10 O10        24.1988   14.5988  -14.1395 O.2       1 <1>        -0.3740 
     11 O11        26.6867   12.1208  -11.3089 O.2       1 <1>        -0.3670 
     12 C12        23.9170   12.8340  -11.8351 C.3       1 <1>         0.2213 
     13 O13        23.4980   13.9443  -11.0170 O.3       1 <1>        -0.2348 
     14 C14        22.3259   14.3208  -11.5131 C.2       1 <1>         0.2491 
     15 C15        21.8299   13.5203  -12.6275 C.2       1 <1>         0.0288 
     16 C16        22.7842   12.6093  -12.8082 C.2       1 <1>        -0.0059 
     17 C17        20.5400   13.6789  -13.3840 C.3       1 <1>        -0.0323 
     18 O18        21.7080   15.2668  -11.0554 O.2       1 <1>        -0.3691 
     19 N19        26.4292   15.8693  -15.8258 N.pl3     1 <1>        -0.2340 
     20 C20        25.8454   16.9658  -15.4244 C.2       1 <1>         0.2025 
     21 C21        25.9678   17.4498  -13.9955 C.3       1 <1>         0.0430 
     22 O22        25.1941   17.6288  -16.2144 O.2       1 <1>        -0.3787 
     23 C23        25.3711   18.8693  -13.7904 C.3       1 <1>        -0.0354 
     24 C24        25.5216   19.3413  -12.3180 C.3       1 <1>        -0.0512 
     25 C25        24.9287   20.7626  -12.1172 C.3       1 <1>        -0.0558 
     26 C26        25.0816   21.2349  -10.6479 C.3       1 <1>        -0.0653 
     27 H1         29.0523   15.6277  -15.8993 H         1 <1>         0.0578 
     28 H2         30.4216   14.2387  -14.3728 H         1 <1>         0.0632 
     29 H3         29.3332   12.8872  -12.5651 H         1 <1>         0.0584 
     30 H4         24.0821   11.9422  -11.2075 H         1 <1>         0.1152 
     31 H5         22.7612   11.8211  -13.5595 H         1 <1>         0.0702 
     32 H6         20.7422   14.1797  -14.3424 H         1 <1>         0.0347 
     33 H7         19.8311   14.2883  -12.8037 H         1 <1>         0.0347 
     34 H8         20.0889   12.6944  -13.5781 H         1 <1>         0.0347 
     35 H9         26.3339   15.5947  -16.8151 H         1 <1>         0.2134 
     36 H10        27.0328   17.4644  -13.7165 H         1 <1>         0.0511 
     37 H11        25.4365   16.7550  -13.3300 H         1 <1>         0.0511 
     38 H12        24.3021   18.8565  -14.0612 H         1 <1>         0.0290 
     39 H13        25.8887   19.5774  -14.4585 H         1 <1>         0.0290 
     40 H14        26.5895   19.3517  -12.0443 H         1 <1>         0.0267 
     41 H15        25.0008   18.6336  -11.6518 H         1 <1>         0.0267 
     42 H16        23.8587   20.7575  -12.3844 H         1 <1>         0.0263 
     43 H17        25.4464   21.4758  -12.7803 H         1 <1>         0.0263 
     44 H18        24.6553   22.2435  -10.5277 H         1 <1>         0.0230 
     45 H19        26.1449   21.2684  -10.3634 H         1 <1>         0.0230 
     46 H20        24.5546   20.5489   -9.9664 H         1 <1>         0.0230 
@<TRIPOS>BOND
     1    2    1 ar   
     2    2    3 ar   
     3    3    4 ar   
     4    4    5 ar   
     5    6    5 ar   
     6    1    6 ar   
     7    6    7 1    
     8    7    8 am   
     9    9    8 am   
    10    5    9 1    
    11    7   10 2    
    12    9   11 2    
    13    8   12 1    
    14   12   13 1    
    15   13   14 1    
    16   15   14 1    
    17   16   15 2    
    18   12   16 1    
    19   15   17 1    
    20   14   18 2    
    21    1   19 1    
    22   19   20 1    
    23   20   21 1    
    24   20   22 2    
    25   21   23 1    
    26   23   24 1    
    27   24   25 1    
    28   25   26 1    
    29    2   27 1    
    30    3   28 1    
    31    4   29 1    
    32   12   30 1    
    33   16   31 1    
    34   17   32 1    
    35   17   33 1    
    36   17   34 1    
    37   19   35 1    
    38   21   36 1    
    39   21   37 1    
    40   23   38 1    
    41   23   39 1    
    42   24   40 1    
    43   24   41 1    
    44   25   42 1    
    45   25   43 1    
    46   26   44 1    
    47   26   45 1    
    48   26   46 1    
@<TRIPOS>SUBSTRUCTURE
     1 ****        2 TEMP              0 ****  ****    0 ROOT 
@<TRIPOS>NORMAL
@<TRIPOS>FF_PBC
FORCE_FIELD_SETUP_FEATURE Force Field Setup information
v1.0  0 0.000000 0.000000 0.000000 0.000000 0.000000 0.000000 NONE 0 0 0 0 1 0 0 0 0 0 0 0 0
