#	Name:			PISM00680
#	Creating user name:	baoopengkun
#	Creation time:		Thu Jan 24 23:57:40 2019

#	Modifying user name:	baoopengkun
#	Modification time:	Thu Jan 24 23:58:17 2019

@<TRIPOS>MOLECULE
PISM00680
   15    15     1     1     0
SMALL
GAST_HUCK


@<TRIPOS>ATOM
      1 C1         -8.5712    2.1017    7.5061 C.3       1 <1>         0.0602 
      2 O2         -7.8342    2.5185    8.6744 O.3       1 <1>        -0.3773 
      3 C3         -8.6441    3.2659    9.5952 C.3       1 <1>         0.0602 
      4 C4         -9.7072    2.3047   10.1964 C.3       1 <1>         0.0194 
      5 N5        -10.2185    1.3492    9.1846 N.3       1 <1>        -0.3116 
      6 C6        -10.0739    1.8200    7.7929 C.3       1 <1>         0.0194 
      7 H1         -8.0702    1.1881    7.1493 H         1 <1>         0.0572 
      8 H2         -8.4808    2.8709    6.7220 H         1 <1>         0.0572 
      9 H3         -9.1110    4.1244    9.0843 H         1 <1>         0.0572 
     10 H4         -7.9990    3.6610   10.3961 H         1 <1>         0.0572 
     11 H5        -10.5139    2.8973   10.6608 H         1 <1>         0.0446 
     12 H6         -9.2346    1.6890   10.9786 H         1 <1>         0.0446 
     13 H7        -11.2397    1.0529    9.3994 H         1 <1>         0.1221 
     14 H8        -10.6680    2.7415    7.6684 H         1 <1>         0.0446 
     15 H9        -10.4595    1.0698    7.0824 H         1 <1>         0.0446 
@<TRIPOS>BOND
     1    2    1 1    
     2    2    3 1    
     3    3    4 1    
     4    4    5 1    
     5    5    6 1    
     6    1    6 1    
     7    1    7 1    
     8    1    8 1    
     9    3    9 1    
    10    3   10 1    
    11    4   11 1    
    12    4   12 1    
    13    5   13 1    
    14    6   14 1    
    15    6   15 1    
@<TRIPOS>SUBSTRUCTURE
     1 ****        2 TEMP              0 ****  ****    0 ROOT 
@<TRIPOS>NORMAL
@<TRIPOS>FF_PBC
FORCE_FIELD_SETUP_FEATURE Force Field Setup information
v1.0  0 0.000000 0.000000 0.000000 0.000000 0.000000 0.000000 NONE 0 0 0 0 1 0 0 0 0 0 0 0 0
