#	Name:			PISM00002
#	Creating user name:	baoopengkun
#	Creation time:		Thu Nov 15 10:43:21 2018

#	Modifying user name:	baoopengkun
#	Modification time:	Thu Nov 15 10:52:19 2018

@<TRIPOS>MOLECULE
PISM00002
   55    58     1     2     0
SMALL
GAST_HUCK


@<TRIPOS>ATOM
      1 C1         -6.5503    7.9025   -0.7114 C.2       1 PHENYL      0.2530 
      2 C          -7.9551    8.4219   -0.4733 C.ar      1 PHENYL      0.0501 
      3 C          -8.8469    7.9790    0.5164 C.ar      1 PHENYL     -0.0013 
      4 C         -10.1022    8.5501    0.6648 C.ar      1 PHENYL      0.0505 
      5 C         -10.5570    9.5641   -0.1762 C.ar      1 PHENYL     -0.0415 
      6 C          -9.6942   10.0056   -1.1824 C.ar      1 PHENYL     -0.0678 
      7 C          -8.4191    9.4422   -1.3198 C.ar      1 PHENYL     -0.0554 
      8 O8         -5.9492    8.2498   -1.7172 O.2       1 PHENYL     -0.3611 
      9 O9         -5.9469    7.0806    0.1399 O.3       1 PHENYL     -0.2948 
     10 C10        -8.8996    6.9402    1.6144 C.2       1 PHENYL     -0.0374 
     11 C11       -10.0933    7.0608    2.2181 C.2       1 PHENYL      0.0038 
     12 N12       -10.8734    8.0257    1.7187 N.3       1 PHENYL     -0.2332 
     13 C13        -7.8695    5.9152    2.0270 C.3       1 PHENYL      0.0074 
     14 C14        -7.8545    4.6472    1.1239 C.3       1 PHENYL      0.1384 
     15 N15        -6.7062    3.8502    1.5468 N.am      1 PHENYL     -0.2487 
     16 C16        -6.6243    3.2475    2.8795 C.3       1 PHENYL      0.0257 
     17 C17        -7.9024    5.0115   -0.3398 C.2       1 PHENYL      0.2067 
     18 N18        -6.8407    4.8732   -1.1666 N.am      1 PHENYL     -0.2394 
     19 C19        -5.6318    4.1849   -0.7105 C.3       1 PHENYL      0.2462 
     20 C20        -5.6220    3.7552    0.7454 C.2       1 PHENYL      0.2590 
     21 O21        -4.5742    3.3057    1.1835 O.2       1 PHENYL     -0.3387 
     22 C22        -5.5175    2.9056   -1.5923 C.3       1 PHENYL      0.0374 
     23 C23        -4.3540    1.9822   -1.1973 C.ar      1 PHENYL     -0.0480 
     24 C24        -3.0797    2.1748   -1.7423 C.ar      1 PHENYL     -0.0714 
     25 C25        -2.0226    1.3370   -1.3761 C.ar      1 PHENYL     -0.0772 
     26 C26        -2.2340    0.2947   -0.4692 C.ar      1 PHENYL     -0.0403 
     27 C27        -3.5071    0.0895    0.0770 C.ar      1 PHENYL      0.0809 
     28 C28        -4.5575    0.9339   -0.2917 C.ar      1 PHENYL     -0.0325 
     29 O29        -3.7520   -0.9449    0.9857 O.3       1 PHENYL     -0.3349 
     30 C30        -6.9815    5.3534   -2.5457 C.3       1 PHENYL      0.0242 
     31 O31        -8.9655    5.4423   -0.7577 O.2       1 PHENYL     -0.3943 
     32 O32        -4.5411    5.0977   -0.9439 O.3       1 PHENYL     -0.3639 
     33 H1        -11.5462    9.9909   -0.0502 H         1 PHENYL      0.0593 
     34 H2        -10.0162   10.7906   -1.8601 H         1 PHENYL      0.0557 
     35 H3         -7.7796    9.8199   -2.1119 H         1 PHENYL      0.0588 
     36 H4         -5.0964    6.7950   -0.1827 H         1 PHENYL      0.2520 
     37 H5        -10.4193    6.4288    3.0454 H         1 PHENYL      0.0776 
     38 H6        -11.0304    8.7932    2.4649 H         1 PHENYL      0.1892 
     39 H7         -8.1090    5.5879    3.0507 H         1 PHENYL      0.0406 
     40 H8         -6.8825    6.3834    2.1048 H         1 PHENYL      0.0406 
     41 H9         -8.7767    4.0699    1.3029 H         1 PHENYL      0.0819 
     42 H10        -6.1951    2.2343    2.8242 H         1 PHENYL      0.0490 
     43 H11        -7.6173    3.1578    3.3457 H         1 PHENYL      0.0490 
     44 H12        -5.9851    3.8661    3.5286 H         1 PHENYL      0.0490 
     45 H13        -5.3838    3.1835   -2.6477 H         1 PHENYL      0.0461 
     46 H14        -6.4639    2.3473   -1.5167 H         1 PHENYL      0.0461 
     47 H15        -2.9035    2.9756   -2.4535 H         1 PHENYL      0.0464 
     48 H16        -1.0346    1.4960   -1.7978 H         1 PHENYL      0.0572 
     49 H17        -1.4046   -0.3499   -0.1963 H         1 PHENYL      0.0485 
     50 H18        -5.5382    0.7665    0.1405 H         1 PHENYL      0.0478 
     51 H19        -2.9741   -1.4182    1.2576 H         1 PHENYL      0.2479 
     52 H20        -7.4673    4.5776   -3.1564 H         1 PHENYL      0.0485 
     53 H21        -6.0004    5.5895   -2.9849 H         1 PHENYL      0.0485 
     54 H22        -7.5920    6.2676   -2.6107 H         1 PHENYL      0.0485 
     55 H23        -3.7058    4.7106   -0.6974 H         1 PHENYL      0.2102 
@<TRIPOS>BOND
     1    2    3 ar   
     2    2    7 ar   
     3    7    6 ar   
     4    6    5 ar   
     5    4    5 ar   
     6    3    4 ar   
     7    2    1 1    
     8    1    8 2    
     9    1    9 1    
    10    3   10 1    
    11   10   11 2    
    12   11   12 1    
    13    4   12 1    
    14   10   13 1    
    15   13   14 1    
    16   14   15 1    
    17   15   16 1    
    18   14   17 1    
    19   17   18 am   
    20   18   19 1    
    21   20   19 1    
    22   15   20 am   
    23   20   21 2    
    24   19   22 1    
    25   22   23 1    
    26   23   24 ar   
    27   24   25 ar   
    28   25   26 ar   
    29   27   26 ar   
    30   28   27 ar   
    31   23   28 ar   
    32   27   29 1    
    33   18   30 1    
    34   17   31 2    
    35   19   32 1    
    36    5   33 1    
    37    6   34 1    
    38    7   35 1    
    39    9   36 1    
    40   11   37 1    
    41   12   38 1    
    42   13   39 1    
    43   13   40 1    
    44   14   41 1    
    45   16   42 1    
    46   16   43 1    
    47   16   44 1    
    48   22   45 1    
    49   22   46 1    
    50   24   47 1    
    51   25   48 1    
    52   26   49 1    
    53   28   50 1    
    54   29   51 1    
    55   30   52 1    
    56   30   53 1    
    57   30   54 1    
    58   32   55 1    
@<TRIPOS>SUBSTRUCTURE
     1 PHENYL      2 PERM              0 ****  ****    0 ROOT 
@<TRIPOS>NORMAL
@<TRIPOS>FF_PBC
FORCE_FIELD_SETUP_FEATURE Force Field Setup information
v1.0  0 0.000000 0.000000 0.000000 0.000000 0.000000 0.000000 NONE 0 0 0 0 1 0 0 0 0 0 0 0 0
@<TRIPOS>RENDERING_ATTRS
BALL_AND_STICK  
*
