#	Name:			PISM01035
#	Creating user name:	malab
#	Creation time:		Tue Jul 02 17:51:28 2019

#	Modifying user name:	malab
#	Modification time:	Tue Jul 02 17:51:51 2019

@<TRIPOS>MOLECULE
PISM01035
   43    44     1     1     0
SMALL
GAST_HUCK


@<TRIPOS>ATOM
      1 N1         -6.1088    1.1698   -5.0776 N.pl3     1 <1>        -0.1707 
      2 C2         -6.2744    0.1121   -5.8139 C.2       1 <1>         0.1283 
      3 N3         -5.2235   -0.5731   -5.8274 N.2       1 <1>        -0.2870 
      4 C4         -4.2089    0.0446   -5.0196 C.2       1 <1>         0.0618 
      5 N5         -4.8335    1.0831   -4.6046 N.2       1 <1>        -0.1897 
      6 C6         -7.0833    2.2111   -4.7643 C.3       1 <1>         0.1213 
      7 C7         -6.8440    2.6477   -3.2807 C.3       1 <1>         0.0944 
      8 O8         -6.9894    1.4632   -2.4671 O.3       1 <1>        -0.3879 
      9 C9         -7.7670    3.7595   -2.6602 C.3       1 <1>        -0.0085 
     10 C10        -7.6473    3.6908   -1.1027 C.3       1 <1>        -0.0576 
     11 C11        -7.3266    5.2017   -3.0673 C.3       1 <1>        -0.0576 
     12 C12        -9.2607    3.5349   -3.0352 C.3       1 <1>        -0.0576 
     13 C13        -6.9078    3.3045   -5.8504 C.3       1 <1>         0.0132 
     14 C14        -6.8272    2.6394   -7.2321 C.ar      1 <1>        -0.0465 
     15 C15        -5.5856    2.3423   -7.8047 C.ar      1 <1>        -0.0667 
     16 C16        -5.5130    1.7171   -9.0527 C.ar      1 <1>        -0.0671 
     17 C17        -6.6825    1.3834   -9.7446 C.ar      1 <1>        -0.0528 
     18 C18        -7.9235    1.6864   -9.1750 C.ar      1 <1>        -0.0671 
     19 C19        -7.9964    2.3113   -7.9270 C.ar      1 <1>        -0.0667 
     20 C20        -6.6293    0.6932  -11.1127 C.3       1 <1>        -0.0343 
     21 H1         -7.1815   -0.1614   -6.3518 H         1 <1>         0.1361 
     22 H2         -3.1900   -0.2801   -4.8144 H         1 <1>         0.0864 
     23 H3         -8.0884    1.7673   -4.8454 H         1 <1>         0.0727 
     24 H4         -5.8017    2.9982   -3.1851 H         1 <1>         0.0633 
     25 H5         -6.3707    0.7692   -2.6785 H         1 <1>         0.2099 
     26 H6         -6.5933    3.7738   -0.7951 H         1 <1>         0.0236 
     27 H7         -8.0477    2.7453   -0.7058 H         1 <1>         0.0236 
     28 H8         -8.2087    4.5059   -0.6203 H         1 <1>         0.0236 
     29 H9         -7.4287    5.3984   -4.1385 H         1 <1>         0.0236 
     30 H10        -6.2767    5.3797   -2.7883 H         1 <1>         0.0236 
     31 H11        -7.9442    5.9520   -2.5499 H         1 <1>         0.0236 
     32 H12        -9.4352    3.6904   -4.1089 H         1 <1>         0.0236 
     33 H13        -9.9060    4.2402   -2.4892 H         1 <1>         0.0236 
     34 H14        -9.5699    2.5113   -2.7734 H         1 <1>         0.0236 
     35 H15        -5.9893    3.8792   -5.6552 H         1 <1>         0.0446 
     36 H16        -7.7607    3.9956   -5.8768 H         1 <1>         0.0446 
     37 H17        -4.6688    2.5896   -7.2787 H         1 <1>         0.0540 
     38 H18        -4.5404    1.4919   -9.4781 H         1 <1>         0.0540 
     39 H19        -8.8373    1.4350   -9.7043 H         1 <1>         0.0540 
     40 H20        -8.9680    2.5374   -7.4991 H         1 <1>         0.0540 
     41 H21        -7.1272   -0.2855  -11.0425 H         1 <1>         0.0378 
     42 H22        -5.5958    0.5386  -11.4570 H         1 <1>         0.0378 
     43 H23        -7.1571    1.3131  -11.8529 H         1 <1>         0.0378 
@<TRIPOS>BOND
     1    2    1 1    
     2    2    3 2    
     3    3    4 1    
     4    4    5 2    
     5    1    5 1    
     6    1    6 1    
     7    6    7 1    
     8    7    8 1    
     9    7    9 1    
    10    9   10 1    
    11    9   11 1    
    12    9   12 1    
    13    6   13 1    
    14   13   14 1    
    15   14   15 ar   
    16   15   16 ar   
    17   16   17 ar   
    18   17   18 ar   
    19   18   19 ar   
    20   14   19 ar   
    21   17   20 1    
    22    2   21 1    
    23    4   22 1    
    24    6   23 1    
    25    7   24 1    
    26    8   25 1    
    27   10   26 1    
    28   10   27 1    
    29   10   28 1    
    30   11   29 1    
    31   11   30 1    
    32   11   31 1    
    33   12   32 1    
    34   12   33 1    
    35   12   34 1    
    36   13   35 1    
    37   13   36 1    
    38   15   37 1    
    39   16   38 1    
    40   18   39 1    
    41   19   40 1    
    42   20   41 1    
    43   20   42 1    
    44   20   43 1    
@<TRIPOS>SUBSTRUCTURE
     1 ****        2 TEMP              0 ****  ****    0 ROOT 
@<TRIPOS>NORMAL
@<TRIPOS>FF_PBC
FORCE_FIELD_SETUP_FEATURE Force Field Setup information
v1.0  0 0.000000 0.000000 0.000000 0.000000 0.000000 0.000000 NONE 0 0 0 0 1 0 0 0 0 0 0 0 0
