#	Name:			PISM01161
#	Creating user name:	baoopengkun
#	Creation time:		Tue Dec 18 16:01:46 2018

#	Modifying user name:	baoopengkun
#	Modification time:	Tue Dec 18 16:02:37 2018

@<TRIPOS>MOLECULE
PISM01161
   15    15     1     1     0
SMALL
GAST_HUCK


@<TRIPOS>ATOM
      1 S1          3.9412    6.0492    5.3029 S.3       1 <1>        -0.1412 
      2 C2          2.1979    6.5550    5.4230 C.3       1 <1>         0.0452 
      3 N3          2.1449    7.9789    5.0319 N.3       1 <1>        -0.2855 
      4 C4          3.2234    8.2605    4.0615 C.3       1 <1>         0.1192 
      5 C5          4.4950    7.6741    4.7128 C.3       1 <1>         0.0289 
      6 C6          3.3596    9.7327    3.7640 C.2       1 <1>         0.2494 
      7 O7          4.4167   10.3307    3.8910 O.2       1 <1>        -0.3688 
      8 O8          2.2485   10.3398    3.3461 O.3       1 <1>        -0.2915 
      9 H1          1.8407    6.4300    6.4565 H         1 <1>         0.0540 
     10 H2          1.6067    5.9132    4.7492 H         1 <1>         0.0540 
     11 H3          1.1736    8.2492    4.6331 H         1 <1>         0.1258 
     12 H4          3.0276    7.7403    3.1084 H         1 <1>         0.0728 
     13 H5          4.7911    8.2755    5.5864 H         1 <1>         0.0418 
     14 H6          5.3399    7.5921    4.0117 H         1 <1>         0.0418 
     15 H7          2.4073   11.2629    3.1825 H         1 <1>         0.2540 
@<TRIPOS>BOND
     1    2    1 1    
     2    2    3 1    
     3    3    4 1    
     4    4    5 1    
     5    1    5 1    
     6    4    6 1    
     7    6    7 2    
     8    6    8 1    
     9    2    9 1    
    10    2   10 1    
    11    3   11 1    
    12    4   12 1    
    13    5   13 1    
    14    5   14 1    
    15    8   15 1    
@<TRIPOS>SUBSTRUCTURE
     1 ****        2 TEMP              0 ****  ****    0 ROOT 
@<TRIPOS>NORMAL
@<TRIPOS>FF_PBC
FORCE_FIELD_SETUP_FEATURE Force Field Setup information
v1.0  0 0.000000 0.000000 0.000000 0.000000 0.000000 0.000000 NONE 0 0 0 0 1 0 0 0 0 0 0 0 0
