#	Name:			PISM00322
#	Creating user name:	malab
#	Creation time:		Wed Apr 10 23:07:08 2019

#	Modifying user name:	malab
#	Modification time:	Wed Apr 10 23:13:18 2019

@<TRIPOS>MOLECULE
PISM00322
  105   107     1     2     0
SMALL
USER_CHARGES


@<TRIPOS>ATOM
      1 C1        -42.7621   27.4465    0.6559 C.2       1 <1>         0.0000 
      2 N2        -43.1993   28.4351   -0.1450 N.am      1 <1>         0.0000 
      3 C3        -43.9995   27.8853   -1.2211 C.3       1 <1>         0.0000 
      4 C4        -43.3437   26.4938   -1.3613 C.3       1 <1>         0.0000 
      5 N5        -42.9894   26.2765    0.0323 N.am      1 <1>         0.0000 
      6 O6        -42.2523   27.5884    1.7558 O.2       1 <1>         0.0000 
      7 C7        -44.0981   28.4283   -2.6567 C.3       1 <1>         0.0000 
      8 S8        -44.7834   26.9407   -3.4880 S.3       1 <1>         0.0000 
      9 C9        -44.3518   25.6877   -2.2073 C.3       1 <1>         0.0000 
     10 C10       -43.7727   24.4197   -2.8899 C.3       1 <1>         0.0000 
     11 C11       -43.2518   23.3768   -1.8642 C.3       1 <1>         0.0000 
     12 C12       -42.8892   22.0329   -2.5543 C.3       1 <1>         0.0000 
     13 C13       -42.3425   20.9920   -1.5375 C.3       1 <1>         0.0000 
     14 C14       -42.0623   19.6487   -2.1732 C.2       1 <1>         0.0000 
     15 O15       -42.2481   19.5033   -3.3714 O.2       1 <1>         0.0000 
     16 N16       -41.6163   18.6412   -1.3860 N.am      1 <1>         0.0000 
     17 C17       -41.3804   17.3227   -1.9713 C.3       1 <1>         0.0000 
     18 C18       -40.8521   16.2793   -0.9549 C.3       1 <1>         0.0000 
     19 O19       -40.7113   15.0146   -1.6332 O.3       1 <1>         0.0000 
     20 C20       -40.2267   13.9567   -0.7825 C.3       1 <1>         0.0000 
     21 C21       -40.1451   12.6552   -1.6137 C.3       1 <1>         0.0000 
     22 O22       -39.6788   11.5848   -0.7682 O.3       1 <1>         0.0000 
     23 C23       -39.5482   10.3291   -1.4652 C.3       1 <1>         0.0000 
     24 C24       -39.0473    9.2524   -0.4693 C.3       1 <1>         0.0000 
     25 N25       -38.8192    7.9598   -1.1110 N.am      1 <1>         0.0000 
     26 C26       -38.3822    6.9103   -0.3750 C.2       1 <1>         0.0000 
     27 O27       -38.1975    6.9843    0.8297 O.2       1 <1>         0.0000 
     28 C28       -38.1151    5.6103   -1.0979 C.3       1 <1>         0.0000 
     29 C29       -37.4728    4.5278   -0.1894 C.3       1 <1>         0.0000 
     30 C30       -37.0994    3.2712   -0.9453 C.2       1 <1>         0.0000 
     31 O31       -37.4010    3.1505   -2.1220 O.2       1 <1>         0.0000 
     32 N32       -36.4261    2.3062   -0.2822 N.am      1 <1>         0.0000 
     33 N33       -35.9784    1.1139   -0.9688 N.2       1 <1>         0.0000 
     34 C34       -35.8766   -0.0278   -0.4044 C.2       1 <1>         0.0000 
     35 C35       -35.2086   -1.1108   -1.2051 C.3       1 <1>         0.0000 
     36 C36       -35.2834   -2.5142   -0.5269 C.3       1 <1>         0.0000 
     37 C37       -35.0549   -2.4278    1.0215 C.3       1 <1>         0.0000 
     38 C38       -35.9666   -1.3827    1.6461 C.2       1 <1>         0.0000 
     39 C39       -36.3469   -0.2952    0.9650 C.2       1 <1>         0.0000 
     40 C40       -34.2203   -3.4526   -1.1735 C.3       1 <1>         0.0000 
     41 C41       -36.6983   -3.1166   -0.7948 C.3       1 <1>         0.0000 
     42 O42       -35.3639   -3.7402    1.5403 O.3       1 <1>         0.0000 
     43 C43       -33.6225   -2.1415    1.4243 C.2       1 <1>         0.0000 
     44 C44       -33.0247   -0.9471    1.3994 C.2       1 <1>         0.0000 
     45 H45       -33.5247   -0.0602    1.0204 H         1 <1>         0.0000 
     46 C46       -30.5849   -0.3677    1.2266 C.2       1 <1>         0.0000 
     47 C47       -29.2527   -0.2058    1.9234 C.3       1 <1>         0.0000 
     48 H46       -29.2222   -0.6940    2.9104 H         1 <1>         0.0000 
     49 H47       -29.0460    0.8667    2.0573 H         1 <1>         0.0000 
     50 C50       -36.4209   -1.6085    3.0741 C.3       1 <1>         0.0000 
     51 H1        -43.1332   29.4175    0.0307 H         1 <1>         0.0000 
     52 H2        -45.0235   27.7907   -0.8158 H         1 <1>         0.0000 
     53 H3        -42.3941   26.5746   -1.9184 H         1 <1>         0.0000 
     54 H4        -42.8078   25.3703    0.4144 H         1 <1>         0.0000 
     55 H5        -43.1058   28.6768   -3.0627 H         1 <1>         0.0000 
     56 H6        -44.7673   29.2985   -2.7381 H         1 <1>         0.0000 
     57 H7        -45.2460   25.4453   -1.6102 H         1 <1>         0.0000 
     58 H8        -42.9530   24.7033   -3.5701 H         1 <1>         0.0000 
     59 H9        -44.5774   23.9719   -3.4956 H         1 <1>         0.0000 
     60 H10       -44.0263   23.1962   -1.1013 H         1 <1>         0.0000 
     61 H11       -42.3533   23.7731   -1.3662 H         1 <1>         0.0000 
     62 H12       -42.1309   22.2132   -3.3342 H         1 <1>         0.0000 
     63 H13       -43.7922   21.6233   -3.0365 H         1 <1>         0.0000 
     64 H14       -43.0837   20.8437   -0.7361 H         1 <1>         0.0000 
     65 H15       -41.4121   21.3723   -1.0863 H         1 <1>         0.0000 
     66 H16       -41.4599   18.7765   -0.4050 H         1 <1>         0.0000 
     67 H17       -40.6491   17.4101   -2.7912 H         1 <1>         0.0000 
     68 H18       -42.3271   16.9447   -2.3903 H         1 <1>         0.0000 
     69 H19       -41.5700   16.1887   -0.1234 H         1 <1>         0.0000 
     70 H20       -39.8808   16.6171   -0.5581 H         1 <1>         0.0000 
     71 H21       -40.9099   13.7943    0.0668 H         1 <1>         0.0000 
     72 H22       -39.2241   14.1999   -0.3947 H         1 <1>         0.0000 
     73 H23       -39.4542   12.8165   -2.4574 H         1 <1>         0.0000 
     74 H24       -41.1469   12.4226   -2.0104 H         1 <1>         0.0000 
     75 H25       -38.8189   10.4243   -2.2870 H         1 <1>         0.0000 
     76 H26       -40.5188   10.0107   -1.8810 H         1 <1>         0.0000 
     77 H27       -39.7927    9.1412    0.3353 H         1 <1>         0.0000 
     78 H28       -38.1024    9.6050   -0.0237 H         1 <1>         0.0000 
     79 H29       -38.9733    7.8704   -2.0978 H         1 <1>         0.0000 
     80 H30       -37.4311    5.8218   -1.9355 H         1 <1>         0.0000 
     81 H31       -39.0660    5.2327   -1.5067 H         1 <1>         0.0000 
     82 H32       -38.1735    4.2611    0.6181 H         1 <1>         0.0000 
     83 H33       -36.5569    4.9424    0.2627 H         1 <1>         0.0000 
     84 H34       -36.1862    2.4531    0.6789 H         1 <1>         0.0000 
     85 H35       -34.1637   -0.7977   -1.3234 H         1 <1>         0.0000 
     86 H36       -35.6495   -1.1442   -2.2134 H         1 <1>         0.0000 
     87 H37       -37.0224    0.4172    1.4342 H         1 <1>         0.0000 
     88 H38       -34.3990   -3.5561   -2.2548 H         1 <1>         0.0000 
     89 H39       -34.2610   -4.4537   -0.7203 H         1 <1>         0.0000 
     90 H40       -33.2021   -3.0592   -1.0375 H         1 <1>         0.0000 
     91 H41       -37.4814   -2.4944   -0.3379 H         1 <1>         0.0000 
     92 H42       -36.7863   -4.1337   -0.3850 H         1 <1>         0.0000 
     93 H43       -36.9017   -3.1834   -1.8744 H         1 <1>         0.0000 
     94 H44       -35.1868   -3.8630    2.4671 H         1 <1>         0.0000 
     95 H45       -33.0134   -2.9741    1.7773 H         1 <1>         0.0000 
     96 C96       -31.6538   -0.7895    1.9179 C.2       1 <1>         0.0000 
     97 H48       -28.4555   -0.6428    1.3042 H         1 <1>         0.0000 
     98 H49       -31.5522   -1.0479    2.9716 H         1 <1>         0.0000 
     99 H53       -31.6052   -0.2978   -1.8776 H         1 <1>         0.0000 
    100 H50       -36.9620   -0.7425    3.4839 H         1 <1>         0.0000 
    101 H51       -35.5465   -1.7816    3.7191 H         1 <1>         0.0000 
    102 H52       -37.0925   -2.4778    3.1290 H         1 <1>         0.0000 
    103 C104      -30.6521   -0.0620   -0.2187 C.2       1 <1>         0.0000 
    104 O105      -29.7637    0.6074   -0.7255 O.2       1 <1>         0.0000 
    105 O106      -31.6629   -0.5306   -0.9565 O.3       1 <1>         0.0000 
@<TRIPOS>BOND
     1    1    2 am   
     2    3    2 1    
     3    4    3 1    
     4    4    5 1    
     5    5    1 am   
     6    1    6 2    
     7    3    7 1    
     8    8    7 1    
     9    9    8 1    
    10    9    4 1    
    11   10    9 1    
    12   11   10 1    
    13   12   11 1    
    14   13   12 1    
    15   14   13 1    
    16   14   15 2    
    17   16   14 am   
    18   17   16 1    
    19   18   17 1    
    20   19   18 1    
    21   20   19 1    
    22   21   20 1    
    23   22   21 1    
    24   23   22 1    
    25   24   23 1    
    26   25   24 1    
    27   26   25 am   
    28   26   27 2    
    29   28   26 1    
    30   29   28 1    
    31   30   29 1    
    32   30   31 2    
    33   32   30 am   
    34   33   32 1    
    35   34   33 2    
    36   35   34 1    
    37   36   35 1    
    38   37   36 1    
    39   37   38 1    
    40   38   39 2    
    41   39   34 1    
    42   36   40 1    
    43   36   41 1    
    44   37   42 1    
    45   43   37 1    
    46   44   43 2    
    47   44   45 1    
    48   46  103 1    
    49   96   46 2    
    50   46   47 1    
    51   47   48 1    
    52   38   50 1    
    53    2   51 1    
    54    3   52 1    
    55    4   53 1    
    56    5   54 1    
    57    7   55 1    
    58    7   56 1    
    59    9   57 1    
    60   10   58 1    
    61   10   59 1    
    62   11   60 1    
    63   11   61 1    
    64   12   62 1    
    65   12   63 1    
    66   13   64 1    
    67   13   65 1    
    68   16   66 1    
    69   17   67 1    
    70   17   68 1    
    71   18   69 1    
    72   18   70 1    
    73   20   71 1    
    74   20   72 1    
    75   21   73 1    
    76   21   74 1    
    77   23   75 1    
    78   23   76 1    
    79   24   77 1    
    80   24   78 1    
    81   25   79 1    
    82   28   80 1    
    83   28   81 1    
    84   29   82 1    
    85   29   83 1    
    86   32   84 1    
    87   35   85 1    
    88   35   86 1    
    89   39   87 1    
    90   40   88 1    
    91   40   89 1    
    92   40   90 1    
    93   41   91 1    
    94   41   92 1    
    95   41   93 1    
    96   42   94 1    
    97   43   95 1    
    98   96   44 1    
    99   47   49 1    
   100   47   97 1    
   101   96   98 1    
   102   50  100 1    
   103   50  101 1    
   104   50  102 1    
   105  105   99 1    
   106  103  104 2    
   107  103  105 1    
@<TRIPOS>SUBSTRUCTURE
     1 ****        2 TEMP              0 ****  ****    0 ROOT 
@<TRIPOS>NORMAL
@<TRIPOS>FF_PBC
FORCE_FIELD_SETUP_FEATURE Force Field Setup information
v1.0  0 0.000000 0.000000 0.000000 0.000000 0.000000 0.000000 NONE 0 0 0 0 0 0 0 0 0 0 0 0 0
@<TRIPOS>RENDERING_ATTRS
ANTIALIASED_LINES 
*
