#	Name:			PISM00283.1
#	Creating user name:	14062
#	Creation time:		Fri Jul 12 14:25:25 2019

#	Modifying user name:	14062
#	Modification time:	Fri Jul 12 14:29:31 2019

@<TRIPOS>MOLECULE
PISM00283.1
   57    58     2     1     0
SMALL
GAST_HUCK


@<TRIPOS>ATOM
      1 C1         -0.7993   -3.8461  -13.8099 C.2       1 BENZYL     -0.0657 
      2 C1         -0.0561   -2.8613  -13.2857 C.2       1 BENZYL     -0.0763 
      3 C2          1.4552   -2.8103  -13.3846 C.ar      1 BENZYL     -0.0595 
      4 C3          2.1583   -3.4150  -14.4342 C.ar      1 BENZYL     -0.0403 
      5 C4          3.5551   -3.3996  -14.4612 C.ar      1 BENZYL      0.1167 
      6 C5          4.2656   -2.7583  -13.4395 C.ar      1 BENZYL      0.1176 
      7 C6          3.5694   -2.1027  -12.4219 C.ar      1 BENZYL     -0.0432 
      8 C7          2.1722   -2.1273  -12.3957 C.ar      1 BENZYL     -0.0795 
      9 C9         -2.3063   -3.8765  -13.7293 C.3       1 BENZYL      0.0326 
     10 N10        -2.8887   -3.9254  -15.0949 N.3       1 BENZYL     -0.2603 
     11 C1         -4.3406   -4.2440  -15.1205 C.3       2 BENZYL      0.0358 
     12 C2         -4.7650   -4.9167  -16.4323 C.ar      2 BENZYL     -0.0324 
     13 C3         -3.8688   -5.7412  -17.1218 C.ar      2 BENZYL     -0.0608 
     14 C4         -4.2453   -6.3393  -18.3279 C.ar      2 BENZYL     -0.0349 
     15 C5         -5.5259   -6.1277  -18.8439 C.ar      2 BENZYL      0.1248 
     16 C6         -6.4294   -5.3173  -18.1528 C.ar      2 BENZYL     -0.0349 
     17 C7         -6.0501   -4.7149  -16.9496 C.ar      2 BENZYL     -0.0608 
     18 C18        -2.5070   -2.7622  -15.9433 C.3       1 BENZYL      0.1046 
     19 C19        -2.9435   -2.8796  -17.3805 C.2       1 BENZYL      0.2485 
     20 O20        -2.2371   -3.4231  -18.2161 O.2       1 BENZYL     -0.3690 
     21 O21        -4.1439   -2.3536  -17.6657 O.3       1 BENZYL     -0.2759 
     22 C22        -4.5130   -2.4837  -19.0533 C.3       1 BENZYL      0.0766 
     23 C23        -5.9252   -1.8751  -19.2399 C.3       1 BENZYL     -0.0278 
     24 C24        -6.4238   -2.0324  -20.6997 C.3       1 BENZYL     -0.0629 
     25 F25        -5.8850   -6.6944  -19.9929 F         2 BENZYL     -0.1893 
     26 O26         4.2269   -4.0264  -15.5140 O.3       1 BENZYL     -0.3256 
     27 C27         4.8307   -3.1208  -16.4520 C.3       1 BENZYL      0.0568 
     28 O28         5.6627   -2.7628  -13.4247 O.3       1 BENZYL     -0.3259 
     29 C29         6.2439   -4.0311  -13.0805 C.3       1 BENZYL      0.0567 
     30 H1         -0.3403   -4.6879  -14.3268 H         1 BENZYL      0.0691 
     31 H2         -0.5468   -2.0480  -12.7506 H         1 BENZYL      0.0412 
     32 H3          1.6371   -3.8965  -15.2524 H         1 BENZYL      0.0473 
     33 H4          4.1215   -1.5770  -11.6500 H         1 BENZYL      0.0508 
     34 H5          1.6462   -1.6149  -11.5963 H         1 BENZYL      0.0472 
     35 H6         -2.7159   -3.0127  -13.1807 H         1 BENZYL      0.0619 
     36 H7         -2.5616   -4.7876  -13.1649 H         1 BENZYL      0.0619 
     37 H8         -4.6097   -4.9705  -14.3382 H         2 BENZYL      0.0585 
     38 H9         -4.9243   -3.3259  -14.9448 H         2 BENZYL      0.0585 
     39 H10        -2.8749   -5.9189  -16.7237 H         2 BENZYL      0.0548 
     40 H11        -3.5461   -6.9681  -18.8685 H         2 BENZYL      0.0587 
     41 H12        -7.4239   -5.1580  -18.5562 H         2 BENZYL      0.0587 
     42 H13        -6.7608   -4.0893  -16.4192 H         2 BENZYL      0.0548 
     43 H14        -1.4132   -2.6502  -15.9783 H         1 BENZYL      0.0688 
     44 H15        -2.9242   -1.8340  -15.5231 H         1 BENZYL      0.0688 
     45 H16        -4.5313   -3.5439  -19.3541 H         1 BENZYL      0.0613 
     46 H17        -3.7943   -1.9460  -19.6948 H         1 BENZYL      0.0613 
     47 H18        -5.8936   -0.8063  -18.9708 H         1 BENZYL      0.0288 
     48 H19        -6.6303   -2.3780  -18.5585 H         1 BENZYL      0.0288 
     49 H20        -5.7384   -1.5251  -21.3965 H         1 BENZYL      0.0231 
     50 H21        -7.4258   -1.5878  -20.8068 H         1 BENZYL      0.0231 
     51 H22        -6.4825   -3.0978  -20.9725 H         1 BENZYL      0.0231 
     52 H23         5.3097   -3.7163  -17.2429 H         1 BENZYL      0.0573 
     53 H24         5.5978   -2.4932  -15.9733 H         1 BENZYL      0.0573 
     54 H25         4.0664   -2.4742  -16.9106 H         1 BENZYL      0.0573 
     55 H26         5.9211   -4.3418  -12.0745 H         1 BENZYL      0.0573 
     56 H27         7.3379   -3.9181  -13.0811 H         1 BENZYL      0.0573 
     57 H28         5.9723   -4.8128  -13.8064 H         1 BENZYL      0.0573 
@<TRIPOS>BOND
     1    2    3 1    
     2    3    4 ar   
     3    3    8 ar   
     4    8    7 ar   
     5    7    6 ar   
     6    6    5 ar   
     7    5    4 ar   
     8    2    1 2    
     9    1    9 1    
    10    9   10 1    
    11   11   12 1    
    12   12   13 ar   
    13   12   17 ar   
    14   17   16 ar   
    15   16   15 ar   
    16   15   14 ar   
    17   14   13 ar   
    18   10   11 1    
    19   10   18 1    
    20   18   19 1    
    21   19   20 2    
    22   19   21 1    
    23   21   22 1    
    24   22   23 1    
    25   23   24 1    
    26   15   25 1    
    27    5   26 1    
    28   26   27 1    
    29    6   28 1    
    30   28   29 1    
    31    1   30 1    
    32    2   31 1    
    33    4   32 1    
    34    7   33 1    
    35    8   34 1    
    36    9   35 1    
    37    9   36 1    
    38   11   37 1    
    39   11   38 1    
    40   13   39 1    
    41   14   40 1    
    42   16   41 1    
    43   17   42 1    
    44   18   43 1    
    45   18   44 1    
    46   22   45 1    
    47   22   46 1    
    48   23   47 1    
    49   23   48 1    
    50   24   49 1    
    51   24   50 1    
    52   24   51 1    
    53   27   52 1    
    54   27   53 1    
    55   27   54 1    
    56   29   55 1    
    57   29   56 1    
    58   29   57 1    
@<TRIPOS>SUBSTRUCTURE
     1 BENZYL      2 PERM              0 ****  ****    1 ROOT 
     2 BENZYL     11 PERM              0 ****  ****    1  
@<TRIPOS>NORMAL
@<TRIPOS>FF_PBC
FORCE_FIELD_SETUP_FEATURE Force Field Setup information
v1.0  0 0.000000 0.000000 0.000000 0.000000 0.000000 0.000000 NONE 0 0 0 0 1 0 0 0 0 0 0 0 0
