#	Name:			PISM00130
#	Creating user name:	malab
#	Creation time:		Thu Apr 04 11:00:27 2019

#	Modifying user name:	malab
#	Modification time:	Thu Apr 04 11:04:39 2019

@<TRIPOS>MOLECULE
PISM00130
   64    68     1     1     0
SMALL
GAST_HUCK


@<TRIPOS>ATOM
      1 C1         -3.6672    1.2509   -8.0689 C.ar      1 <1>        -0.0575 
      2 C2         -3.3128    1.3406   -9.4181 C.ar      1 <1>        -0.0567 
      3 C3         -4.1734    0.8389  -10.3988 C.ar      1 <1>        -0.0414 
      4 C4         -5.3721    0.2246  -10.0228 C.ar      1 <1>         0.0643 
      5 C5         -5.6925    0.0670   -8.6742 C.ar      1 <1>         0.0171 
      6 C6         -4.8679    0.6387   -7.6980 C.ar      1 <1>        -0.0479 
      7 C7         -6.3695   -0.2794  -11.0397 C.2       1 <1>         0.2403 
      8 O8         -6.1380   -0.1103  -12.2268 O.2       1 <1>        -0.3805 
      9 N9         -7.4550   -0.8761  -10.6203 N.pl3     1 <1>        -0.1630 
     10 C10        -8.4299   -1.3526  -11.5951 C.3       1 <1>         0.0567 
     11 N11        -7.7149   -1.0895   -9.3060 N.2       1 <1>        -0.1772 
     12 C12        -6.9489   -0.7150   -8.3592 C.2       1 <1>         0.0803 
     13 C13        -7.3331   -1.0716   -6.9404 C.ar      1 <1>        -0.0109 
     14 C14        -6.3924   -1.6062   -6.0529 C.ar      1 <1>        -0.0605 
     15 C15        -6.7330   -1.8181   -4.7140 C.ar      1 <1>        -0.0310 
     16 C16        -8.0227   -1.5190   -4.2677 C.ar      1 <1>         0.0961 
     17 C17        -8.9937   -1.0922   -5.1765 C.ar      1 <1>        -0.0310 
     18 C18        -8.6493   -0.8703   -6.5128 C.ar      1 <1>        -0.0605 
     19 O19        -8.3417   -1.6376   -2.9158 O.3       1 <1>        -0.2964 
     20 C20        -7.9544   -0.4889   -2.1331 C.3       1 <1>         0.1596 
     21 C21        -8.3612   -0.6035   -0.6800 C.2       1 <1>         0.2095 
     22 O22        -9.0626   -1.5587   -0.3874 O.2       1 <1>        -0.3939 
     23 N23        -7.9755    0.3006    0.2696 N.am      1 <1>        -0.2710 
     24 C24        -7.0684    1.4100   -0.0533 C.3       1 <1>         0.0343 
     25 C25        -7.4347    2.6971    0.7300 C.3       1 <1>        -0.0278 
     26 C26        -7.6032    2.4071    2.2439 C.3       1 <1>        -0.0277 
     27 C27        -8.7210    1.3463    2.4150 C.3       1 <1>        -0.0278 
     28 C28        -8.3508    0.0427    1.6647 C.3       1 <1>         0.0343 
     29 C29        -7.9415    3.7157    3.0140 C.3       1 <1>        -0.0162 
     30 C30        -8.1588    3.4344    4.5083 C.ar      1 <1>        -0.0428 
     31 C31        -9.4398    3.4918    5.0707 C.ar      1 <1>        -0.0603 
     32 C32        -9.6297    3.2139    6.4274 C.ar      1 <1>        -0.0686 
     33 C33        -8.5384    2.8741    7.2315 C.ar      1 <1>        -0.0687 
     34 C34        -7.2561    2.8253    6.6782 C.ar      1 <1>        -0.0686 
     35 C35        -7.0675    3.1122    5.3229 C.ar      1 <1>        -0.0603 
     36 H1         -3.0089    1.6597   -7.3080 H         1 <1>         0.0650 
     37 H2         -2.3725    1.8021   -9.7040 H         1 <1>         0.0625 
     38 H3         -3.9107    0.9286  -11.4482 H         1 <1>         0.0667 
     39 H4         -5.1510    0.6235   -6.6517 H         1 <1>         0.0631 
     40 H5         -8.8156   -0.5067  -12.1849 H         1 <1>         0.0557 
     41 H6         -9.2759   -1.8401  -11.0869 H         1 <1>         0.0557 
     42 H7         -7.9611   -2.0825  -12.2732 H         1 <1>         0.0557 
     43 H8         -5.3970   -1.8626   -6.4024 H         1 <1>         0.0598 
     44 H9         -5.9999   -2.2136   -4.0189 H         1 <1>         0.0548 
     45 H10       -10.0116   -0.9299   -4.8379 H         1 <1>         0.0548 
     46 H11        -9.4041   -0.5347   -7.2174 H         1 <1>         0.0598 
     47 H12        -8.4458    0.4031   -2.5509 H         1 <1>         0.0860 
     48 H13        -6.8603   -0.3872   -2.1897 H         1 <1>         0.0860 
     49 H14        -7.0612    1.7043   -1.1132 H         1 <1>         0.0522 
     50 H15        -6.0465    1.0994    0.2183 H         1 <1>         0.0522 
     51 H16        -8.3810    3.0977    0.3301 H         1 <1>         0.0289 
     52 H17        -6.6512    3.4587    0.5778 H         1 <1>         0.0289 
     53 H18        -6.6572    1.9975    2.6378 H         1 <1>         0.0324 
     54 H19        -9.6675    1.7420    2.0118 H         1 <1>         0.0289 
     55 H20        -8.8747    1.1116    3.4813 H         1 <1>         0.0289 
     56 H21        -9.2115   -0.6394    1.7693 H         1 <1>         0.0522 
     57 H22        -7.4892   -0.4319    2.1614 H         1 <1>         0.0522 
     58 H23        -8.8393    4.1811    2.5784 H         1 <1>         0.0429 
     59 H24        -7.1140    4.4360    2.9147 H         1 <1>         0.0429 
     60 H25       -10.2974    3.7506    4.4581 H         1 <1>         0.0557 
     61 H26       -10.6257    3.2612    6.8573 H         1 <1>         0.0599 
     62 H27        -8.6866    2.6487    8.2834 H         1 <1>         0.0559 
     63 H28        -6.4062    2.5646    7.3016 H         1 <1>         0.0599 
     64 H29        -6.0665    3.0823    4.9053 H         1 <1>         0.0557 
@<TRIPOS>BOND
     1    2    1 ar   
     2    2    3 ar   
     3    3    4 ar   
     4    4    5 ar   
     5    5    6 ar   
     6    1    6 ar   
     7    4    7 1    
     8    7    8 2    
     9    7    9 1    
    10    9   10 1    
    11    9   11 1    
    12   11   12 2    
    13    5   12 1    
    14   12   13 1    
    15   13   14 ar   
    16   14   15 ar   
    17   15   16 ar   
    18   16   17 ar   
    19   17   18 ar   
    20   13   18 ar   
    21   16   19 1    
    22   19   20 1    
    23   20   21 1    
    24   21   22 2    
    25   21   23 am   
    26   23   24 1    
    27   24   25 1    
    28   25   26 1    
    29   26   27 1    
    30   27   28 1    
    31   23   28 1    
    32   26   29 1    
    33   29   30 1    
    34   30   31 ar   
    35   31   32 ar   
    36   32   33 ar   
    37   33   34 ar   
    38   34   35 ar   
    39   30   35 ar   
    40    1   36 1    
    41    2   37 1    
    42    3   38 1    
    43    6   39 1    
    44   10   40 1    
    45   10   41 1    
    46   10   42 1    
    47   14   43 1    
    48   15   44 1    
    49   17   45 1    
    50   18   46 1    
    51   20   47 1    
    52   20   48 1    
    53   24   49 1    
    54   24   50 1    
    55   25   51 1    
    56   25   52 1    
    57   26   53 1    
    58   27   54 1    
    59   27   55 1    
    60   28   56 1    
    61   28   57 1    
    62   29   58 1    
    63   29   59 1    
    64   31   60 1    
    65   32   61 1    
    66   33   62 1    
    67   34   63 1    
    68   35   64 1    
@<TRIPOS>SUBSTRUCTURE
     1 ****        2 TEMP              0 ****  ****    0 ROOT 
@<TRIPOS>NORMAL
@<TRIPOS>FF_PBC
FORCE_FIELD_SETUP_FEATURE Force Field Setup information
v1.0  0 0.000000 0.000000 0.000000 0.000000 0.000000 0.000000 NONE 0 0 0 0 1 0 0 0 0 0 0 0 0
