#	Name:			PISM00797
#	Creating user name:	baoopengkun
#	Creation time:		Sat Dec 15 02:06:24 2018

#	Modifying user name:	baoopengkun
#	Modification time:	Sat Dec 15 02:08:39 2018

@<TRIPOS>MOLECULE
PISM00797
   41    44     1     1     0
SMALL
GAST_HUCK


@<TRIPOS>ATOM
      1 C1          6.7983   18.3508  -40.0394 C.ar      1 <1>        -0.0703 
      2 C2          5.9566   18.7489  -38.9929 C.ar      1 <1>        -0.0763 
      3 C3          5.0490   17.8498  -38.4100 C.ar      1 <1>        -0.0742 
      4 C4          4.9505   16.5229  -38.8510 C.ar      1 <1>        -0.0412 
      5 C5          5.7902   16.1300  -39.8938 C.ar      1 <1>         0.0663 
      6 C6          6.6824   17.0288  -40.4636 C.ar      1 <1>        -0.0096 
      7 C7          7.3472   16.1819  -41.5151 C.2       1 <1>        -0.0156 
      8 C8          6.7996   14.9749  -41.4298 C.2       1 <1>         0.1040 
      9 N9          5.8896   14.9193  -40.4936 N.pl3     1 <1>        -0.2675 
     10 C10         5.1074   13.7383  -40.1497 C.3       1 <1>         0.0368 
     11 C11         7.4116   14.1041  -42.4281 C.2       1 <1>         0.1399 
     12 C12         8.4121   14.9527  -43.1019 C.2       1 <1>         0.0305 
     13 C13         8.4062   16.3760  -42.5650 C.3       1 <1>         0.0054 
     14 O14         7.1648   12.9328  -42.6656 O.2       1 <1>        -0.4040 
     15 C15         7.9498   17.4180  -43.6145 C.3       1 <1>        -0.0510 
     16 C16         9.2300   14.5187  -44.0662 C.2       1 <1>         0.0831 
     17 O17        10.1112   15.3661  -44.6153 O.3       1 <1>        -0.2667 
     18 C18        10.9140   14.7667  -45.6450 C.3       1 <1>         0.2400 
     19 C19        11.9410   15.7832  -46.0788 C.2       1 <1>        -0.0007 
     20 C20        13.1708   15.3509  -45.8070 C.2       1 <1>         0.0293 
     21 C21        12.9461   14.0447  -45.1983 C.2       1 <1>         0.2496 
     22 O22        11.6767   13.6691  -45.1029 O.3       1 <1>        -0.2302 
     23 C23        14.4821   16.0455  -46.0531 C.3       1 <1>        -0.0323 
     24 O24        13.8589   13.3376  -44.8078 O.2       1 <1>        -0.3691 
     25 H1          7.5064   19.0313  -40.4996 H         1 <1>         0.0563 
     26 H2          6.0082   19.7700  -38.6276 H         1 <1>         0.0517 
     27 H3          4.4096   18.1886  -37.6005 H         1 <1>         0.0552 
     28 H4          4.2492   15.8304  -38.3991 H         1 <1>         0.0546 
     29 H5          4.0375   13.9532  -40.2919 H         1 <1>         0.0554 
     30 H6          5.2866   13.4735  -39.0967 H         1 <1>         0.0554 
     31 H7          5.3761   12.8744  -40.7769 H         1 <1>         0.0554 
     32 H8          9.3716   16.6400  -42.1045 H         1 <1>         0.0507 
     33 H9          8.6977   17.5123  -44.4160 H         1 <1>         0.0265 
     34 H10         7.8242   18.4008  -43.1351 H         1 <1>         0.0265 
     35 H11         6.9892   17.1155  -44.0594 H         1 <1>         0.0265 
     36 H12         9.1386   13.4702  -44.3625 H         1 <1>         0.1132 
     37 H13        10.3111   14.4368  -46.5083 H         1 <1>         0.1214 
     38 H14        11.7020   16.7391  -46.5429 H         1 <1>         0.0706 
     39 H15        15.2350   15.6929  -45.3322 H         1 <1>         0.0347 
     40 H16        14.3668   17.1342  -45.9427 H         1 <1>         0.0347 
     41 H17        14.8292   15.8208  -47.0724 H         1 <1>         0.0347 
@<TRIPOS>BOND
     1    2    1 ar   
     2    2    3 ar   
     3    3    4 ar   
     4    4    5 ar   
     5    5    6 ar   
     6    1    6 ar   
     7    6    7 1    
     8    7    8 2    
     9    8    9 1    
    10    9   10 1    
    11    5    9 1    
    12    8   11 1    
    13   11   12 1    
    14   12   13 1    
    15    7   13 1    
    16   11   14 2    
    17   13   15 1    
    18   12   16 2    
    19   16   17 1    
    20   17   18 1    
    21   18   19 1    
    22   19   20 2    
    23   20   21 1    
    24   21   22 1    
    25   18   22 1    
    26   20   23 1    
    27   21   24 2    
    28    1   25 1    
    29    2   26 1    
    30    3   27 1    
    31    4   28 1    
    32   10   29 1    
    33   10   30 1    
    34   10   31 1    
    35   13   32 1    
    36   15   33 1    
    37   15   34 1    
    38   15   35 1    
    39   16   36 1    
    40   18   37 1    
    41   19   38 1    
    42   23   39 1    
    43   23   40 1    
    44   23   41 1    
@<TRIPOS>SUBSTRUCTURE
     1 ****        2 TEMP              0 ****  ****    0 ROOT 
@<TRIPOS>NORMAL
@<TRIPOS>FF_PBC
FORCE_FIELD_SETUP_FEATURE Force Field Setup information
v1.0  0 0.000000 0.000000 0.000000 0.000000 0.000000 0.000000 NONE 0 0 0 0 1 0 0 0 0 0 0 0 0
