#	Name:			PISM00780.1
#	Creating user name:	baoopengkun
#	Creation time:		Fri Nov 30 22:22:14 2018

#	Modifying user name:	baoopengkun
#	Modification time:	Fri Nov 30 22:23:24 2018

@<TRIPOS>MOLECULE
PISM00780.1
   29    31     1     2     0
SMALL
GAST_HUCK


@<TRIPOS>ATOM
      1 C1        -24.9889   16.2698  -26.3068 C.ar      1 <1>        -0.0201 
      2 C2        -26.2780   16.3977  -25.7821 C.ar      1 <1>        -0.0643 
      3 C3        -26.5496   15.9500  -24.4865 C.ar      1 <1>        -0.0658 
      4 C4        -25.5316   15.3773  -23.7190 C.ar      1 <1>        -0.0502 
      5 C5        -24.2430   15.2438  -24.2475 C.ar      1 <1>         0.0640 
      6 C6        -23.9702   15.6910  -25.5444 C.ar      1 <1>         0.1447 
      7 O7        -22.6914   15.5683  -26.0945 O.3       1 <1>        -0.2156 
      8 C8        -21.7027   15.0207  -25.3794 C.2       1 <1>         0.2425 
      9 C9        -21.9193   14.5344  -24.0032 C.2       1 <1>         0.0344 
     10 C10       -23.1313   14.6195  -23.4360 C.2       1 <1>         0.1216 
     11 O11       -23.4167   14.1888  -22.1885 O.3       1 <1>        -0.2584 
     12 C12       -22.4064   13.4696  -21.4547 C.3       1 <1>         0.2403 
     13 C13       -22.1424   12.0962  -22.0377 C.2       1 <1>        -0.0010 
     14 C14       -22.4845   11.1407  -21.1756 C.2       1 <1>         0.0292 
     15 C15       -22.9829   11.8815  -20.0252 C.2       1 <1>         0.2495 
     16 O16       -22.9557   13.2038  -20.1454 O.3       1 <1>        -0.2305 
     17 C17       -22.3898    9.6482  -21.3382 C.3       1 <1>        -0.0323 
     18 O18       -23.3971   11.3303  -19.0186 O.2       1 <1>        -0.3691 
     19 O19       -20.5965   14.9263  -25.8862 O.2       1 <1>        -0.3915 
     20 H1        -24.7752   16.6207  -27.3109 H         1 <1>         0.0569 
     21 H2        -27.0670   16.8439  -26.3796 H         1 <1>         0.0629 
     22 H3        -27.5508   16.0464  -24.0771 H         1 <1>         0.0550 
     23 H4        -25.7506   15.0386  -22.7121 H         1 <1>         0.0638 
     24 H5        -21.0278   14.1263  -23.5332 H         1 <1>         0.0379 
     25 H6        -21.4911   14.0573  -21.2864 H         1 <1>         0.1210 
     26 H7        -21.7314   11.8852  -23.0231 H         1 <1>         0.0706 
     27 H8        -22.0674    9.3807  -22.3563 H         1 <1>         0.0347 
     28 H9        -23.3725    9.1924  -21.1442 H         1 <1>         0.0347 
     29 H10       -21.6607    9.2496  -20.6170 H         1 <1>         0.0347 
@<TRIPOS>BOND
     1    2    1 ar   
     2    2    3 ar   
     3    3    4 ar   
     4    4    5 ar   
     5    5    6 ar   
     6    1    6 ar   
     7    6    7 1    
     8    7    8 1    
     9    8    9 1    
    10    9   10 2    
    11    5   10 1    
    12   10   11 1    
    13   11   12 1    
    14   12   13 1    
    15   13   14 2    
    16   14   15 1    
    17   15   16 1    
    18   12   16 1    
    19   14   17 1    
    20   15   18 2    
    21    8   19 2    
    22    1   20 1    
    23    2   21 1    
    24    3   22 1    
    25    4   23 1    
    26    9   24 1    
    27   12   25 1    
    28   13   26 1    
    29   17   27 1    
    30   17   28 1    
    31   17   29 1    
@<TRIPOS>SUBSTRUCTURE
     1 ****        2 TEMP              0 ****  ****    0 ROOT 
@<TRIPOS>NORMAL
@<TRIPOS>FF_PBC
FORCE_FIELD_SETUP_FEATURE Force Field Setup information
v1.0  0 0.000000 0.000000 0.000000 0.000000 0.000000 0.000000 NONE 0 0 0 0 0 0 0 0 0 0 0 0 0
@<TRIPOS>RENDERING_ATTRS
ANTIALIASED_LINES 
*
