#	Name:			PISM00916
#	Creating user name:	baoopengkun
#	Creation time:		Fri Dec 14 10:31:16 2018

#	Modifying user name:	baoopengkun
#	Modification time:	Fri Dec 14 10:50:28 2018

@<TRIPOS>MOLECULE
PISM00916
   46    48     1     1     0
SMALL
GAST_HUCK


@<TRIPOS>ATOM
      1 C1         23.2839   10.3955   -7.4846 C.ar      1 <1>         0.0873 
      2 C2         24.1958   10.0711   -6.4722 C.ar      1 <1>        -0.0294 
      3 C3         25.5332   10.4918   -6.5389 C.ar      1 <1>        -0.0620 
      4 C4         25.9976   11.2545   -7.6185 C.ar      1 <1>        -0.0488 
      5 C5         25.0771   11.5823   -8.6132 C.ar      1 <1>         0.0636 
      6 C6         23.7549   11.1676   -8.5464 C.ar      1 <1>         0.0945 
      7 C7         23.0913   11.7253   -9.7803 C.2       1 <1>         0.2371 
      8 N8         23.9938   12.4085  -10.5101 N.am      1 <1>        -0.1423 
      9 C9         25.1893   12.3746   -9.8920 C.2       1 <1>         0.2414 
     10 O10        21.9156   11.5603  -10.0553 O.2       1 <1>        -0.3740 
     11 O11        26.2173   12.8954  -10.2886 O.2       1 <1>        -0.3670 
     12 C12        23.7094   13.1092  -11.7496 C.3       1 <1>         0.2213 
     13 O13        22.9180   14.2742  -11.4435 O.3       1 <1>        -0.2348 
     14 C14        21.7530   14.0736  -12.0477 C.2       1 <1>         0.2491 
     15 C15        21.6456   12.8333  -12.8083 C.2       1 <1>         0.0288 
     16 C16        22.8330   12.2559  -12.6353 C.2       1 <1>        -0.0059 
     17 C17        20.4659   12.3236  -13.5895 C.3       1 <1>        -0.0323 
     18 O18        20.8428   14.8814  -11.9759 O.2       1 <1>        -0.3691 
     19 N19        21.9987    9.9781   -7.4245 N.pl3     1 <1>        -0.2340 
     20 C20        21.5349    9.0227   -8.1832 C.2       1 <1>         0.2025 
     21 C21        22.4191    8.3138   -9.1858 C.3       1 <1>         0.0430 
     22 O22        20.3689    8.6791   -8.0827 O.2       1 <1>        -0.3787 
     23 C23        21.7179    7.0958   -9.8475 C.3       1 <1>        -0.0354 
     24 C24        22.6526    6.3848  -10.8643 C.3       1 <1>        -0.0512 
     25 C25        21.9466    5.1716  -11.5289 C.3       1 <1>        -0.0558 
     26 C26        22.8801    4.4640  -12.5455 C.3       1 <1>        -0.0653 
     27 H1         23.8592    9.4824   -5.6247 H         1 <1>         0.0578 
     28 H2         26.2202   10.2228   -5.7419 H         1 <1>         0.0632 
     29 H3         27.0301   11.5821   -7.6848 H         1 <1>         0.0584 
     30 H4         24.6286   13.4081  -12.2806 H         1 <1>         0.1152 
     31 H5         23.1303   11.2984  -13.0609 H         1 <1>         0.0702 
     32 H6         20.5903   12.5800  -14.6519 H         1 <1>         0.0347 
     33 H7         19.5397   12.7843  -13.2148 H         1 <1>         0.0347 
     34 H8         20.3856   11.2309  -13.4873 H         1 <1>         0.0347 
     35 H9         21.3628   10.4191   -6.7430 H         1 <1>         0.2134 
     36 H10        23.3306    7.9692   -8.6732 H         1 <1>         0.0511 
     37 H11        22.7034    9.0222   -9.9769 H         1 <1>         0.0511 
     38 H12        20.8083    7.4400  -10.3675 H         1 <1>         0.0290 
     39 H13        21.4182    6.3816   -9.0625 H         1 <1>         0.0290 
     40 H14        23.5606    6.0366  -10.3450 H         1 <1>         0.0267 
     41 H15        22.9544    7.1012  -11.6461 H         1 <1>         0.0267 
     42 H16        21.0381    5.5137  -12.0524 H         1 <1>         0.0263 
     43 H17        21.6453    4.4485  -10.7525 H         1 <1>         0.0263 
     44 H18        22.3606    3.6083  -13.0054 H         1 <1>         0.0230 
     45 H19        23.7866    4.0934  -12.0418 H         1 <1>         0.0230 
     46 H20        23.1789    5.1618  -13.3434 H         1 <1>         0.0230 
@<TRIPOS>BOND
     1    2    1 ar   
     2    2    3 ar   
     3    3    4 ar   
     4    4    5 ar   
     5    6    5 ar   
     6    1    6 ar   
     7    6    7 1    
     8    7    8 am   
     9    9    8 am   
    10    5    9 1    
    11    7   10 2    
    12    9   11 2    
    13    8   12 1    
    14   12   13 1    
    15   13   14 1    
    16   15   14 1    
    17   16   15 2    
    18   12   16 1    
    19   15   17 1    
    20   14   18 2    
    21    1   19 1    
    22   19   20 1    
    23   20   21 1    
    24   20   22 2    
    25   21   23 1    
    26   23   24 1    
    27   24   25 1    
    28   25   26 1    
    29    2   27 1    
    30    3   28 1    
    31    4   29 1    
    32   12   30 1    
    33   16   31 1    
    34   17   32 1    
    35   17   33 1    
    36   17   34 1    
    37   19   35 1    
    38   21   36 1    
    39   21   37 1    
    40   23   38 1    
    41   23   39 1    
    42   24   40 1    
    43   24   41 1    
    44   25   42 1    
    45   25   43 1    
    46   26   44 1    
    47   26   45 1    
    48   26   46 1    
@<TRIPOS>SUBSTRUCTURE
     1 ****        2 TEMP              0 ****  ****    0 ROOT 
@<TRIPOS>NORMAL
@<TRIPOS>FF_PBC
FORCE_FIELD_SETUP_FEATURE Force Field Setup information
v1.0  0 0.000000 0.000000 0.000000 0.000000 0.000000 0.000000 NONE 0 0 0 0 1 0 0 0 0 0 0 0 0
