#	Name:			PISM00270
#	Creating user name:	14062
#	Creation time:		Sat Apr 06 00:59:17 2019

#	Modifying user name:	14062
#	Modification time:	Sat Apr 06 01:01:30 2019

@<TRIPOS>MOLECULE
PISM00270
   15    15     1     2     0
SMALL
GAST_HUCK


@<TRIPOS>ATOM
      1 C1          0.8629   -4.3793    2.9635 C.ar      1 <1>        -0.0321 
      2 C2          0.4249   -3.5193    1.9521 C.ar      1 <1>        -0.0315 
      3 C3          1.0817   -3.4854    0.7172 C.ar      1 <1>         0.0482 
      4 C4          2.1863   -4.3184    0.5027 C.ar      1 <1>        -0.0315 
      5 C5          2.6253   -5.1802    1.5126 C.ar      1 <1>        -0.0321 
      6 C6          1.9643   -5.2113    2.7439 C.ar      1 <1>        -0.0340 
      7 C7          0.5723   -2.5329   -0.3708 C.3       1 <1>         0.3771 
      8 F8          1.1809   -2.7626   -1.5658 F         1 <1>        -0.2199 
      9 F9         -0.7692   -2.6982   -0.5233 F         1 <1>        -0.2199 
     10 F10         0.8196   -1.2524    0.0135 F         1 <1>        -0.2199 
     11 H1          0.3476   -4.4008    3.9193 H         1 <1>         0.0698 
     12 H2         -0.4303   -2.8732    2.1268 H         1 <1>         0.0853 
     13 H3          2.7109   -4.3016   -0.4475 H         1 <1>         0.0853 
     14 H4          3.4812   -5.8262    1.3405 H         1 <1>         0.0698 
     15 H5          2.3060   -5.8803    3.5283 H         1 <1>         0.0856 
@<TRIPOS>BOND
     1    2    1 ar   
     2    2    3 ar   
     3    3    4 ar   
     4    4    5 ar   
     5    6    5 ar   
     6    1    6 ar   
     7    3    7 1    
     8    7    8 1    
     9    7    9 1    
    10    7   10 1    
    11    1   11 1    
    12    2   12 1    
    13    4   13 1    
    14    5   14 1    
    15    6   15 1    
@<TRIPOS>SUBSTRUCTURE
     1 ****        2 TEMP              0 ****  ****    0 ROOT 
@<TRIPOS>NORMAL
@<TRIPOS>FF_PBC
FORCE_FIELD_SETUP_FEATURE Force Field Setup information
v1.0  0 0.000000 0.000000 0.000000 0.000000 0.000000 0.000000 NONE 0 0 0 0 1 0 0 0 0 0 0 0 0
@<TRIPOS>RENDERING_ATTRS
ANTIALIASED_LINES 
*
