#	Name:			PISM00853.1
#	Creating user name:	baoopengkun
#	Creation time:		Thu Dec 13 15:12:19 2018

#	Modifying user name:	baoopengkun
#	Modification time:	Thu Dec 13 20:06:55 2018

@<TRIPOS>MOLECULE
PISM00853.1
   24    25     1     1     0
SMALL
GAST_HUCK


@<TRIPOS>ATOM
      1 Cl1         1.0721   -3.8512    2.2932 Cl        1 <1>        -0.0736 
      2 C2          2.1162   -2.4449    2.2799 C.ar      1 <1>         0.0323 
      3 C3          3.3806   -2.5067    2.8724 C.ar      1 <1>        -0.0451 
      4 C4          4.2132   -1.3841    2.8634 C.ar      1 <1>         0.0323 
      5 C5          3.7822   -0.2014    2.2565 C.ar      1 <1>        -0.0188 
      6 C6          2.5240   -0.1432    1.6521 C.ar      1 <1>         0.0988 
      7 C7          1.6846   -1.2604    1.6767 C.ar      1 <1>        -0.0188 
      8 Cl8         5.7954   -1.4587    3.6109 Cl        1 <1>        -0.0736 
      9 O9          2.1112    1.0321    1.0274 O.3       1 <1>        -0.2709 
     10 C10         2.1679    0.9936   -0.4061 C.3       1 <1>         0.2356 
     11 O11         1.7839    2.2923   -0.8992 O.3       1 <1>        -0.2313 
     12 C12         2.8618    2.7690   -1.5095 C.2       1 <1>         0.2494 
     13 C13         4.0176    1.8801   -1.5285 C.2       1 <1>         0.0292 
     14 C14         3.5922    0.8021   -0.8732 C.2       1 <1>        -0.0020 
     15 C15         5.3625    2.1207   -2.1575 C.3       1 <1>        -0.0323 
     16 O16         2.8771    3.8736   -2.0247 O.2       1 <1>        -0.3691 
     17 H1          3.7159   -3.4263    3.3401 H         1 <1>         0.0535 
     18 H2          4.4229    0.6736    2.2513 H         1 <1>         0.0549 
     19 H3          0.6981   -1.2081    1.2295 H         1 <1>         0.0549 
     20 H4          1.4963    0.2289   -0.8295 H         1 <1>         0.1198 
     21 H5          4.1897   -0.0911   -0.6948 H         1 <1>         0.0705 
     22 H6          5.7688    1.1826   -2.5645 H         1 <1>         0.0347 
     23 H7          6.0544    2.5150   -1.3986 H         1 <1>         0.0347 
     24 H8          5.2707    2.8527   -2.9740 H         1 <1>         0.0347 
@<TRIPOS>BOND
     1    2    1 1    
     2    2    3 ar   
     3    3    4 ar   
     4    4    5 ar   
     5    5    6 ar   
     6    6    7 ar   
     7    2    7 ar   
     8    4    8 1    
     9    6    9 1    
    10    9   10 1    
    11   10   11 1    
    12   11   12 1    
    13   12   13 1    
    14   13   14 2    
    15   10   14 1    
    16   13   15 1    
    17   12   16 2    
    18    3   17 1    
    19    5   18 1    
    20    7   19 1    
    21   10   20 1    
    22   14   21 1    
    23   15   22 1    
    24   15   23 1    
    25   15   24 1    
@<TRIPOS>SUBSTRUCTURE
     1 ****        2 TEMP              0 ****  ****    0 ROOT 
@<TRIPOS>NORMAL
@<TRIPOS>FF_PBC
FORCE_FIELD_SETUP_FEATURE Force Field Setup information
v1.0  0 0.000000 0.000000 0.000000 0.000000 0.000000 0.000000 NONE 0 0 0 0 1 0 0 0 0 0 0 0 0
