#	Name:			PISM00523
#	Creating user name:	baoopengkun
#	Creation time:		Sun Dec 16 00:34:17 2018

#	Modifying user name:	baoopengkun
#	Modification time:	Sun Dec 16 00:35:45 2018

@<TRIPOS>MOLECULE
PISM00523
   52    52     1     1     0
SMALL
NO_CHARGES


@<TRIPOS>ATOM
      1 O1         10.3037   13.2798   22.2316 O.2       1 <1>         0.0000 
      2 C2          9.9742   12.1624   21.8681 C.2       1 <1>         0.0000 
      3 C3          9.2720   11.8972   20.5665 C.3       1 <1>         0.0000 
      4 C4          9.1215   10.3550   20.6154 C.3       1 <1>         0.0000 
      5 C5          9.0888    9.9990   22.1289 C.3       1 <1>         0.0000 
      6 C6         10.2052   10.9255   22.6886 C.3       1 <1>         0.0000 
      7 C7         10.2081   11.1537   24.2238 C.3       1 <1>         0.0000 
      8 C8         10.2430    9.8295   24.9527 C.2       1 <1>         0.0000 
      9 C9          9.6118    9.5619   26.1054 C.2       1 <1>         0.0000 
     10 C10         8.7924   10.5593   26.8923 C.3       1 <1>         0.0000 
     11 C11         8.7044   10.1623   28.3888 C.3       1 <1>         0.0000 
     12 C12         7.6840   10.2651   22.7535 C.3       1 <1>         0.0000 
     13 C13         6.6495    9.3257   22.1724 C.2       1 <1>         0.0000 
     14 O14         5.9866    9.7503   21.2381 O.2       1 <1>         0.0000 
     15 N15         6.4381    8.0654   22.6345 N.am      1 <1>         0.0000 
     16 C16         7.1006    7.5071   23.8184 C.3       1 <1>         0.0000 
     17 C17         6.2564    7.8918   25.0076 C.2       1 <1>         0.0000 
     18 O18         5.0515    8.0628   24.8973 O.2       1 <1>         0.0000 
     19 O19         6.9074    8.0360   26.1668 O.3       1 <1>         0.0000 
     20 C20         7.2733    5.9614   23.6977 C.3       1 <1>         0.0000 
     21 C21         8.1702    5.6434   22.4663 C.3       1 <1>         0.0000 
     22 C22         7.8563    5.3524   25.0112 C.3       1 <1>         0.0000 
     23 C23         8.0974    3.8205   24.9411 C.3       1 <1>         0.0000 
     24 H1          9.8565   12.2389   19.6974 H         1 <1>         0.0000 
     25 H2          8.2930   12.4013   20.5675 H         1 <1>         0.0000 
     26 H3         10.0222    9.8995   20.1682 H         1 <1>         0.0000 
     27 H4          8.2488    9.9967   20.0489 H         1 <1>         0.0000 
     28 H5          9.3574    8.9395   22.2703 H         1 <1>         0.0000 
     29 H6         11.1895   10.5234   22.3916 H         1 <1>         0.0000 
     30 H7          9.3315   11.7619   24.4897 H         1 <1>         0.0000 
     31 H8         11.1085   11.7255   24.4989 H         1 <1>         0.0000 
     32 H9         10.8311    9.0290   24.4997 H         1 <1>         0.0000 
     33 H10         9.6965    8.5491   26.5041 H         1 <1>         0.0000 
     34 H11         7.7779   10.6070   26.4661 H         1 <1>         0.0000 
     35 H12         9.2451   11.5622   26.8397 H         1 <1>         0.0000 
     36 H13         8.2271    9.1768   28.5031 H         1 <1>         0.0000 
     37 H14         8.1096   10.9040   28.9451 H         1 <1>         0.0000 
     38 H15         9.7132   10.1184   28.8287 H         1 <1>         0.0000 
     39 H16         7.3793   11.3047   22.5604 H         1 <1>         0.0000 
     40 H17         7.6862   10.1502   23.8450 H         1 <1>         0.0000 
     41 H18         5.7255    7.5111   22.1982 H         1 <1>         0.0000 
     42 H19         8.1152    7.9024   23.9622 H         1 <1>         0.0000 
     43 H20         6.3337    8.2753   26.8868 H         1 <1>         0.0000 
     44 H21         6.2784    5.5149   23.5277 H         1 <1>         0.0000 
     45 H22         9.2059    5.9647   22.6558 H         1 <1>         0.0000 
     46 H23         7.8067    6.1651   21.5681 H         1 <1>         0.0000 
     47 H24         8.1686    4.5671   22.2397 H         1 <1>         0.0000 
     48 H25         7.1437    5.5251   25.8340 H         1 <1>         0.0000 
     49 H26         8.8048    5.8513   25.2695 H         1 <1>         0.0000 
     50 H27         8.9282    3.5765   24.2623 H         1 <1>         0.0000 
     51 H28         7.1880    3.3038   24.5970 H         1 <1>         0.0000 
     52 H29         8.3595    3.4367   25.9402 H         1 <1>         0.0000 
@<TRIPOS>BOND
     1    2    1 2    
     2    2    3 1    
     3    3    4 1    
     4    4    5 1    
     5    5    6 1    
     6    2    6 1    
     7    6    7 1    
     8    7    8 1    
     9    8    9 2    
    10    9   10 1    
    11   10   11 1    
    12    5   12 1    
    13   12   13 1    
    14   13   14 2    
    15   13   15 am   
    16   15   16 1    
    17   16   17 1    
    18   17   18 2    
    19   17   19 1    
    20   16   20 1    
    21   20   21 1    
    22   20   22 1    
    23   22   23 1    
    24    3   24 1    
    25    3   25 1    
    26    4   26 1    
    27    4   27 1    
    28    5   28 1    
    29    6   29 1    
    30    7   30 1    
    31    7   31 1    
    32    8   32 1    
    33    9   33 1    
    34   10   34 1    
    35   10   35 1    
    36   11   36 1    
    37   11   37 1    
    38   11   38 1    
    39   12   39 1    
    40   12   40 1    
    41   15   41 1    
    42   16   42 1    
    43   19   43 1    
    44   20   44 1    
    45   21   45 1    
    46   21   46 1    
    47   21   47 1    
    48   22   48 1    
    49   22   49 1    
    50   23   50 1    
    51   23   51 1    
    52   23   52 1    
@<TRIPOS>SUBSTRUCTURE
     1 ****        2 TEMP              0 ****  ****    0 ROOT 
@<TRIPOS>NORMAL
@<TRIPOS>FF_PBC
FORCE_FIELD_SETUP_FEATURE Force Field Setup information
v1.0  0 0.000000 0.000000 0.000000 0.000000 0.000000 0.000000 NONE 0 0 0 0 0 0 0 0 0 0 0 0 0
