#	Name:			PISM00895
#	Creating user name:	baoopengkun
#	Creation time:		Fri Dec 14 10:03:55 2018

#	Modifying user name:	baoopengkun
#	Modification time:	Fri Dec 14 10:07:41 2018

@<TRIPOS>MOLECULE
PISM00895
   31    32     1     1     0
SMALL
GAST_HUCK


@<TRIPOS>ATOM
      1 C1          9.6049   13.1517   -5.4088 C.ar      1 <1>        -0.0584 
      2 C2          9.2997   13.6740   -6.6692 C.ar      1 <1>        -0.0685 
      3 C3          8.4388   14.7690   -6.7840 C.ar      1 <1>        -0.0687 
      4 C4          7.8835   15.3407   -5.6361 C.ar      1 <1>        -0.0685 
      5 C5          8.1907   14.8178   -4.3766 C.ar      1 <1>        -0.0584 
      6 C6          9.0548   13.7238   -4.2554 C.ar      1 <1>        -0.0210 
      7 N7          8.2219   12.4737   -2.3056 N.am      1 <1>        -0.2510 
      8 C8          8.2483   11.9628   -1.0583 C.2       1 <1>         0.3266 
      9 O9          7.2935   11.3762   -0.5774 O.2       1 <1>        -0.3772 
     10 O10         9.4043   12.1469   -0.4081 O.3       1 <1>        -0.2138 
     11 C11         9.3981   11.6622    0.9454 C.3       1 <1>         0.2419 
     12 C12         9.0749   10.1909    1.0630 C.2       1 <1>        -0.0022 
     13 C13         8.0381   10.0158    1.8808 C.2       1 <1>         0.0291 
     14 C14         7.6881   11.3717    2.2955 C.2       1 <1>         0.2494 
     15 O15         8.4216   12.3412    1.7605 O.3       1 <1>        -0.2315 
     16 C16         7.3855    8.7238    2.2891 C.3       1 <1>        -0.0323 
     17 O17         6.7871   11.6057    3.0829 O.2       1 <1>        -0.3691 
     18 C18         9.3798   13.1719   -2.8596 C.3       1 <1>         0.0664 
     19 H1         10.2711   12.2981   -5.3347 H         1 <1>         0.0557 
     20 H2          9.7315   13.2287   -7.5605 H         1 <1>         0.0599 
     21 H3          8.2017   15.1744   -7.7631 H         1 <1>         0.0559 
     22 H4          7.2136   16.1909   -5.7229 H         1 <1>         0.0599 
     23 H5          7.7533   15.2649   -3.4892 H         1 <1>         0.0557 
     24 H6          7.3909   12.3640   -2.8529 H         1 <1>         0.1894 
     25 H7         10.3950   11.8447    1.3769 H         1 <1>         0.1194 
     26 H8          9.6127    9.3944    0.5510 H         1 <1>         0.0704 
     27 H9          6.7301    8.3752    1.4772 H         1 <1>         0.0347 
     28 H10         6.7823    8.8739    3.1971 H         1 <1>         0.0347 
     29 H11         8.1500    7.9587    2.4910 H         1 <1>         0.0347 
     30 H12        10.2414   12.4867   -2.9061 H         1 <1>         0.0683 
     31 H13         9.6564   14.0209   -2.2134 H         1 <1>         0.0683 
@<TRIPOS>BOND
     1    1    2 ar   
     2    2    3 ar   
     3    4    3 ar   
     4    5    4 ar   
     5    6    5 ar   
     6    6    1 ar   
     7    7    8 am   
     8   18    7 1    
     9    8    9 2    
    10    8   10 1    
    11   10   11 1    
    12   11   12 1    
    13   12   13 2    
    14   14   13 1    
    15   15   14 1    
    16   11   15 1    
    17   13   16 1    
    18   14   17 2    
    19    6   18 1    
    20    1   19 1    
    21    2   20 1    
    22    3   21 1    
    23    4   22 1    
    24    5   23 1    
    25    7   24 1    
    26   11   25 1    
    27   12   26 1    
    28   16   27 1    
    29   16   28 1    
    30   16   29 1    
    31   18   30 1    
    32   18   31 1    
@<TRIPOS>SUBSTRUCTURE
     1 ****        2 TEMP              0 ****  ****    0 ROOT 
@<TRIPOS>NORMAL
@<TRIPOS>FF_PBC
FORCE_FIELD_SETUP_FEATURE Force Field Setup information
v1.0  0 0.000000 0.000000 0.000000 0.000000 0.000000 0.000000 NONE 0 0 0 0 1 0 0 0 0 0 0 0 0
