#	Name:			PISM00676
#	Creating user name:	baoopengkun
#	Creation time:		Mon Dec 10 12:14:46 2018

#	Modifying user name:	baoopengkun
#	Modification time:	Mon Dec 10 12:15:07 2018

@<TRIPOS>MOLECULE
PISM00676
   36    37     1     2     0
SMALL
GAST_HUCK


@<TRIPOS>ATOM
      1 C1         -0.0839    6.3303   -2.8953 C.3       1 <1>         0.0324 
      2 C2          0.4370    7.7315   -2.4439 C.3       1 <1>        -0.0551 
      3 C3          1.0451    5.2985   -2.6061 C.3       1 <1>        -0.0551 
      4 C4         -1.3579    6.0173   -2.0570 C.3       1 <1>        -0.0551 
      5 C5         -0.4018    6.3943   -4.3849 C.2       1 <1>         0.1999 
      6 C6         -0.7316    5.1394   -5.1789 C.3       1 <1>         0.2820 
      7 O7         -1.1663    5.4651   -6.5153 O.3       1 <1>        -0.2635 
      8 C8         -2.2325    6.3341   -6.7970 C.ar      1 <1>         0.0984 
      9 C9         -2.4712    6.6833   -8.1294 C.ar      1 <1>        -0.0321 
     10 C10        -3.5090    7.5565   -8.4673 C.ar      1 <1>        -0.0567 
     11 C11        -4.3210    8.0915   -7.4647 C.ar      1 <1>         0.0285 
     12 C12        -4.0942    7.7441   -6.1308 C.ar      1 <1>        -0.0567 
     13 C13        -3.0613    6.8627   -5.7968 C.ar      1 <1>        -0.0321 
     14 Cl14       -5.6187    9.1928   -7.8784 Cl        1 <1>        -0.0810 
     15 O15        -0.3613    7.4682   -4.9663 O.2       1 <1>        -0.3256 
     16 N16        -1.5897    4.1049   -4.6056 N.pl3     1 <1>        -0.1286 
     17 N17        -1.2067    3.1421   -3.7184 N.2       1 <1>        -0.1854 
     18 C18        -2.1272    2.2974   -3.4383 C.2       1 <1>         0.0621 
     19 N19        -3.1859    2.7834   -4.2766 N.2       1 <1>        -0.2868 
     20 C20        -2.8119    3.7923   -4.9216 C.2       1 <1>         0.1334 
     21 H1          0.6948    7.7349   -1.3735 H         1 <1>         0.0219 
     22 H2         -0.3279    8.5065   -2.6099 H         1 <1>         0.0219 
     23 H3          1.3383    8.0107   -3.0120 H         1 <1>         0.0219 
     24 H4          0.7370    4.2728   -2.8402 H         1 <1>         0.0219 
     25 H5          1.3282    5.3236   -1.5425 H         1 <1>         0.0219 
     26 H6          1.9367    5.5340   -3.2075 H         1 <1>         0.0219 
     27 H7         -2.1399    6.7640   -2.2631 H         1 <1>         0.0219 
     28 H8         -1.1263    6.0496   -0.9813 H         1 <1>         0.0219 
     29 H9         -1.7709    5.0263   -2.2740 H         1 <1>         0.0219 
     30 H10         0.2340    4.6372   -5.3341 H         1 <1>         0.1293 
     31 H11        -1.8389    6.2693   -8.9080 H         1 <1>         0.0543 
     32 H12        -3.6851    7.8202   -9.5052 H         1 <1>         0.0595 
     33 H13        -4.7253    8.1617   -5.3528 H         1 <1>         0.0595 
     34 H14        -2.9290    6.6030   -4.7541 H         1 <1>         0.0543 
     35 H15        -2.1085    1.4465   -2.7588 H         1 <1>         0.0864 
     36 H16        -3.4710    4.2741   -5.6401 H         1 <1>         0.1364 
@<TRIPOS>BOND
     1    2    1 1    
     2    1    3 1    
     3    1    4 1    
     4    1    5 1    
     5    5    6 1    
     6    6    7 1    
     7    7    8 1    
     8    8    9 ar   
     9    9   10 ar   
    10   10   11 ar   
    11   11   12 ar   
    12   12   13 ar   
    13    8   13 ar   
    14   11   14 1    
    15    5   15 2    
    16    6   16 1    
    17   16   17 1    
    18   17   18 2    
    19   18   19 1    
    20   19   20 2    
    21   16   20 1    
    22    2   21 1    
    23    2   22 1    
    24    2   23 1    
    25    3   24 1    
    26    3   25 1    
    27    3   26 1    
    28    4   27 1    
    29    4   28 1    
    30    4   29 1    
    31    6   30 1    
    32    9   31 1    
    33   10   32 1    
    34   12   33 1    
    35   13   34 1    
    36   18   35 1    
    37   20   36 1    
@<TRIPOS>SUBSTRUCTURE
     1 ****        2 TEMP              0 ****  ****    0 ROOT 
@<TRIPOS>NORMAL
@<TRIPOS>FF_PBC
FORCE_FIELD_SETUP_FEATURE Force Field Setup information
v1.0  0 0.000000 0.000000 0.000000 0.000000 0.000000 0.000000 NONE 0 0 0 0 1 0 0 0 0 0 0 0 0
@<TRIPOS>RENDERING_ATTRS
ANTIALIASED_LINES 
*
