#	Name:			PISM00719
#	Creating user name:	baoopengkun
#	Creation time:		Sun Jan 20 21:34:04 2019

#	Modifying user name:	baoopengkun
#	Modification time:	Sun Jan 20 21:49:49 2019

@<TRIPOS>MOLECULE
PISM00719
  109   112     1     1     0
SMALL
GAST_HUCK


@<TRIPOS>ATOM
      1 C1         -0.5255    1.2348   -0.3132 C.3       1 <1>        -0.0163 
      2 C2         -0.8914   -0.2175    0.1039 C.3       1 <1>         0.0819 
      3 C3         -0.3526   -0.5467    1.5251 C.3       1 <1>         0.0835 
      4 C4         -0.8615    0.4973    2.5569 C.3       1 <1>        -0.0028 
      5 C5         -0.4227    1.9203    2.1076 C.3       1 <1>         0.0681 
      6 C6         -0.9883    2.3282    0.7025 C.3       1 <1>        -0.0055 
      7 C7         -0.4647    3.7668    0.3012 C.3       1 <1>        -0.0276 
      8 C8          0.9915    4.0687    0.7852 C.3       1 <1>        -0.0063 
      9 C9          1.0200    4.3700    2.3244 C.3       1 <1>         0.0801 
     10 O10        -0.1963    4.1958    3.0906 O.3       1 <1>        -0.2763 
     11 C11        -0.7805    2.9853    3.1117 C.2       1 <1>         0.2374 
     12 O12        -1.6346    2.7627    3.9532 O.2       1 <1>        -0.3701 
     13 C13        -0.6117    4.1370   -1.2068 C.3       1 <1>        -0.0487 
     14 C14        -0.3775    5.6644   -1.4551 C.3       1 <1>        -0.0468 
     15 C15         0.8093    6.2945   -0.6399 C.3       1 <1>        -0.0257 
     16 C16         1.6958    5.1197   -0.1427 C.3       1 <1>        -0.0298 
     17 C17         3.0377    5.7495    0.3042 C.3       1 <1>        -0.0491 
     18 C18         3.1747    6.9892   -0.6273 C.3       1 <1>        -0.0491 
     19 C19         1.8712    7.0896   -1.4852 C.3       1 <1>        -0.0304 
     20 O20        -0.3240   -1.0985   -0.8857 O.3       1 <1>        -0.3892 
     21 O21         1.0881   -0.5505    1.4854 O.3       1 <1>        -0.3891 
     22 C22         4.9353   11.5453   -2.2849 C.3       1 <1>        -0.0480 
     23 C23        -2.5570    2.3863    0.7393 C.3       1 <1>        -0.0568 
     24 C24         0.2796    7.1828    0.5319 C.3       1 <1>        -0.0590 
     25 C25         1.5591    8.5625   -1.9406 C.3       1 <1>        -0.0120 
     26 C26         2.7692    9.2254   -2.6946 C.3       1 <1>         0.0841 
     27 C27         2.5596   10.7329   -3.0471 C.3       1 <1>         0.0839 
     28 C28         3.8784   11.4804   -3.4407 C.3       1 <1>        -0.0154 
     29 C29         7.1801   10.6974   -1.3630 C.3       1 <1>        -0.0530 
     30 C30         8.4348    9.8244   -1.6406 C.3       1 <1>        -0.0531 
     31 C31         6.1670   10.6271   -2.5390 C.3       1 <1>        -0.0527 
     32 C32         0.2583    8.6464   -2.7888 C.3       1 <1>        -0.0597 
     33 O33         3.0930    8.5768   -3.9414 O.3       1 <1>        -0.3890 
     34 O34         1.6389   10.8425   -4.1473 O.3       1 <1>        -0.3890 
     35 C35         3.5369   12.9205   -3.9291 C.3       1 <1>        -0.0600 
     36 C36         9.4732    9.9448   -0.4914 C.3       1 <1>        -0.0531 
     37 C37        10.7436    9.0995   -0.7830 C.3       1 <1>        -0.0531 
     38 C38        11.7993    9.2569    0.3457 C.3       1 <1>        -0.0531 
     39 C39        13.0794    8.4297    0.0448 C.3       1 <1>        -0.0531 
     40 C40        14.1475    8.6154    1.1574 C.3       1 <1>        -0.0531 
     41 C41        15.4282    7.7890    0.8572 C.3       1 <1>        -0.0533 
     42 C42        16.5083    8.0006    1.9531 C.3       1 <1>        -0.0559 
     43 C43        17.7840    7.1701    1.6558 C.3       1 <1>        -0.0653 
     44 H1         -0.9787    1.4097   -1.3011 H         1 <1>         0.0298 
     45 H2          0.5675    1.2750   -0.4341 H         1 <1>         0.0298 
     46 H3         -1.9846   -0.3593    0.0824 H         1 <1>         0.0619 
     47 H4         -0.7070   -1.5545    1.8089 H         1 <1>         0.0621 
     48 H5         -0.4139    0.2711    3.5397 H         1 <1>         0.0319 
     49 H6         -1.9491    0.4158    2.6893 H         1 <1>         0.0319 
     50 H7          0.6695    1.8252    2.1101 H         1 <1>         0.0560 
     51 H8         -1.1156    4.4940    0.8062 H         1 <1>         0.0311 
     52 H9          1.6076    3.1699    0.6179 H         1 <1>         0.0332 
     53 H10         1.1954    5.4367    2.4985 H         1 <1>         0.0616 
     54 H11         1.8495    3.8382    2.8203 H         1 <1>         0.0616 
     55 H12        -1.6127    3.8961   -1.5947 H         1 <1>         0.0268 
     56 H13         0.0977    3.5388   -1.7997 H         1 <1>         0.0268 
     57 H14        -1.3145    6.1842   -1.1957 H         1 <1>         0.0271 
     58 H15        -0.2271    5.7893   -2.5393 H         1 <1>         0.0271 
     59 H16         1.9923    4.5743   -1.0600 H         1 <1>         0.0310 
     60 H17         3.8773    5.0415    0.1925 H         1 <1>         0.0268 
     61 H18         3.0313    6.0757    1.3534 H         1 <1>         0.0268 
     62 H19         4.0656    6.8932   -1.2710 H         1 <1>         0.0268 
     63 H20         3.3025    7.8913   -0.0059 H         1 <1>         0.0268 
     64 H21         2.0321    6.5027   -2.4037 H         1 <1>         0.0310 
     65 H22        -0.4808   -2.0205   -0.7080 H         1 <1>         0.2099 
     66 H23         1.4921   -0.8027    2.3101 H         1 <1>         0.2099 
     67 H24         4.4702   11.3013   -1.3171 H         1 <1>         0.0269 
     68 H25         5.3314   12.5688   -2.1832 H         1 <1>         0.0269 
     69 H26        -2.9710    2.6636   -0.2384 H         1 <1>         0.0237 
     70 H27        -2.9064    3.1310    1.4704 H         1 <1>         0.0237 
     71 H28        -3.0412    1.4424    1.0078 H         1 <1>         0.0237 
     72 H29        -0.3144    8.0216    0.1440 H         1 <1>         0.0235 
     73 H30         1.0964    7.6059    1.1326 H         1 <1>         0.0235 
     74 H31        -0.3840    6.6299    1.2061 H         1 <1>         0.0235 
     75 H32         1.3994    9.1648   -1.0318 H         1 <1>         0.0327 
     76 H33         3.6366    9.1814   -2.0245 H         1 <1>         0.0622 
     77 H34         2.1144   11.2597   -2.1876 H         1 <1>         0.0622 
     78 H35         4.3146   10.9551   -4.3072 H         1 <1>         0.0324 
     79 H36         6.6918   10.3517   -0.4369 H         1 <1>         0.0265 
     80 H37         7.4946   11.7440   -1.2174 H         1 <1>         0.0265 
     81 H38         8.9021   10.1517   -2.5840 H         1 <1>         0.0265 
     82 H39         8.1310    8.7706   -1.7533 H         1 <1>         0.0265 
     83 H40         6.6697   10.9578   -3.4633 H         1 <1>         0.0265 
     84 H41         5.8558    9.5812   -2.6828 H         1 <1>         0.0265 
     85 H42         0.4011    8.1409   -3.7557 H         1 <1>         0.0233 
     86 H43        -0.0376    9.6882   -2.9693 H         1 <1>         0.0233 
     87 H44        -0.5943    8.1907   -2.2749 H         1 <1>         0.0233 
     88 H45         3.3967    7.6808   -3.8523 H         1 <1>         0.2099 
     89 H46         1.9400   10.3381   -4.8979 H         1 <1>         0.2099 
     90 H47         2.8378   12.9057   -4.7793 H         1 <1>         0.0233 
     91 H48         4.4483   13.4421   -4.2621 H         1 <1>         0.0233 
     92 H49         3.0788   13.4993   -3.1122 H         1 <1>         0.0233 
     93 H50         9.0159    9.6064    0.4528 H         1 <1>         0.0265 
     94 H51         9.7627   11.0022   -0.3752 H         1 <1>         0.0265 
     95 H52        11.1856    9.4266   -1.7387 H         1 <1>         0.0265 
     96 H53        10.4627    8.0377   -0.8781 H         1 <1>         0.0265 
     97 H54        11.3645    8.9232    1.3022 H         1 <1>         0.0265 
     98 H55        12.0708   10.3211    0.4425 H         1 <1>         0.0265 
     99 H56        13.5030    8.7530   -0.9205 H         1 <1>         0.0265 
    100 H57        12.8141    7.3626   -0.0348 H         1 <1>         0.0265 
    101 H58        13.7264    8.2971    2.1253 H         1 <1>         0.0265 
    102 H59        14.4131    9.6829    1.2309 H         1 <1>         0.0265 
    103 H60        15.8391    8.0936   -0.1194 H         1 <1>         0.0265 
    104 H61        15.1670    6.7192    0.8035 H         1 <1>         0.0265 
    105 H62        16.1034    7.7009    2.9342 H         1 <1>         0.0263 
    106 H63        16.7785    9.0687    2.0032 H         1 <1>         0.0263 
    107 H64        17.5447    6.0956    1.6267 H         1 <1>         0.0230 
    108 H65        18.5382    7.3398    2.4405 H         1 <1>         0.0230 
    109 H66        18.2161    7.4626    0.6860 H         1 <1>         0.0230 
@<TRIPOS>BOND
     1    2    1 1    
     2    2    3 1    
     3    3    4 1    
     4    4    5 1    
     5    5    6 1    
     6    1    6 1    
     7    6    7 1    
     8    7    8 1    
     9    8    9 1    
    10    9   10 1    
    11   10   11 1    
    12   11   12 2    
    13    5   11 1    
    14    7   13 1    
    15   13   14 1    
    16   14   15 1    
    17   15   16 1    
    18    8   16 1    
    19   16   17 1    
    20   17   18 1    
    21   18   19 1    
    22   15   19 1    
    23    2   20 1    
    24    3   21 1    
    25   28   22 1    
    26    6   23 1    
    27   15   24 1    
    28   19   25 1    
    29   25   26 1    
    30   26   27 1    
    31   27   28 1    
    32   31   29 1    
    33   29   30 1    
    34   22   31 1    
    35   25   32 1    
    36   26   33 1    
    37   27   34 1    
    38   28   35 1    
    39   30   36 1    
    40   36   37 1    
    41   37   38 1    
    42   38   39 1    
    43   39   40 1    
    44   40   41 1    
    45   41   42 1    
    46   42   43 1    
    47    1   44 1    
    48    1   45 1    
    49    2   46 1    
    50    3   47 1    
    51    4   48 1    
    52    4   49 1    
    53    5   50 1    
    54    7   51 1    
    55    8   52 1    
    56    9   53 1    
    57    9   54 1    
    58   13   55 1    
    59   13   56 1    
    60   14   57 1    
    61   14   58 1    
    62   16   59 1    
    63   17   60 1    
    64   17   61 1    
    65   18   62 1    
    66   18   63 1    
    67   19   64 1    
    68   20   65 1    
    69   21   66 1    
    70   22   67 1    
    71   22   68 1    
    72   23   69 1    
    73   23   70 1    
    74   23   71 1    
    75   24   72 1    
    76   24   73 1    
    77   24   74 1    
    78   25   75 1    
    79   26   76 1    
    80   27   77 1    
    81   28   78 1    
    82   29   79 1    
    83   29   80 1    
    84   30   81 1    
    85   30   82 1    
    86   31   83 1    
    87   31   84 1    
    88   32   85 1    
    89   32   86 1    
    90   32   87 1    
    91   33   88 1    
    92   34   89 1    
    93   35   90 1    
    94   35   91 1    
    95   35   92 1    
    96   36   93 1    
    97   36   94 1    
    98   37   95 1    
    99   37   96 1    
   100   38   97 1    
   101   38   98 1    
   102   39   99 1    
   103   39  100 1    
   104   40  101 1    
   105   40  102 1    
   106   41  103 1    
   107   41  104 1    
   108   42  105 1    
   109   42  106 1    
   110   43  107 1    
   111   43  108 1    
   112   43  109 1    
@<TRIPOS>SUBSTRUCTURE
     1 ****        2 TEMP              0 ****  ****    0 ROOT 
@<TRIPOS>NORMAL
@<TRIPOS>FF_PBC
FORCE_FIELD_SETUP_FEATURE Force Field Setup information
v1.0  0 0.000000 0.000000 0.000000 0.000000 0.000000 0.000000 NONE 0 0 0 0 1 0 0 0 0 0 0 0 0
