#	Name:			PISM00343
#	Creating user name:	baoopengkun
#	Creation time:		Sun Mar 31 18:46:55 2019

#	Modifying user name:	baoopengkun
#	Modification time:	Sun Mar 31 18:52:38 2019

@<TRIPOS>MOLECULE
PISM00343
   70    70     1     1     0
SMALL
GAST_HUCK


@<TRIPOS>ATOM
      1 C1         11.2785   -3.8549  -13.1918 C.3       1 <1>        -0.0486 
      2 C2         10.5782   -5.1809  -12.7749 C.3       1 <1>         0.0225 
      3 C3          9.6061   -4.9157  -11.6616 C.2       1 <1>         0.1783 
      4 C4          8.9445   -3.6057  -11.5215 C.2       1 <1>         0.1080 
      5 C5          9.1960   -2.5959  -12.3683 C.2       1 <1>        -0.0545 
      6 C6         10.1983   -2.7583  -13.4936 C.3       1 <1>         0.0241 
      7 C7         12.2278   -3.4171  -12.0298 C.3       1 <1>        -0.0722 
      8 C8         12.1417   -4.1152  -14.4611 C.3       1 <1>        -0.0722 
      9 O9          9.3656   -5.8041  -10.8593 O.2       1 <1>        -0.3530 
     10 S10         7.7941   -3.4198  -10.1670 S.3       1 <1>        -0.0484 
     11 C11         8.5100   -1.2471  -12.2848 C.3       1 <1>        -0.0414 
     12 C12         9.3426   -3.1152  -14.6916 C.2       1 <1>        -0.0993 
     13 C13         9.2820   -2.3930  -15.8186 C.2       1 <1>        -0.0245 
     14 C14         8.4383   -2.7889  -16.9666 C.2       1 <1>         0.0167 
     15 C15         8.4789   -4.2320  -17.4178 C.3       1 <1>        -0.0145 
     16 C16         7.6566   -1.9094  -17.6132 C.2       1 <1>         0.0580 
     17 C17         7.4867   -0.4769  -17.2694 C.2       1 <1>         0.2688 
     18 O18         7.8978   -0.0356  -16.2110 O.2       1 <1>        -0.3498 
     19 O19         6.8711    0.3762  -18.0949 O.3       1 <1>        -0.2928 
     20 O20        10.8294   -1.4939  -13.7678 O.3       1 <1>        -0.4725 
     21 C21         9.0456   -2.8225   -8.9849 C.3       1 <1>         0.0189 
     22 C22         8.3314   -2.4157   -7.6710 C.3       1 <1>        -0.0402 
     23 C23         9.3425   -1.8807   -6.6206 C.3       1 <1>        -0.0520 
     24 C24         8.6211   -1.4468   -5.3151 C.3       1 <1>        -0.0530 
     25 C25         9.6270   -0.9097   -4.2601 C.3       1 <1>        -0.0531 
     26 C26         8.8987   -0.4589   -2.9640 C.3       1 <1>        -0.0531 
     27 C27         9.9012    0.0806   -1.9073 C.3       1 <1>        -0.0531 
     28 C28         9.1698    0.5478   -0.6190 C.3       1 <1>        -0.0533 
     29 C29        10.1738    1.0752    0.4422 C.3       1 <1>        -0.0559 
     30 C30         9.4427    1.5381    1.7295 C.3       1 <1>        -0.0653 
     31 H1         11.3275   -5.9126  -12.4347 H         1 <1>         0.0479 
     32 H2         10.0307   -5.6499  -13.6040 H         1 <1>         0.0479 
     33 H3         12.8834   -4.2464  -11.7238 H         1 <1>         0.0220 
     34 H4         11.6541   -3.0957  -11.1479 H         1 <1>         0.0220 
     35 H5         12.8889   -2.5925  -12.3336 H         1 <1>         0.0220 
     36 H6         12.9283   -4.8548  -14.2469 H         1 <1>         0.0220 
     37 H7         12.6228   -3.1829  -14.7943 H         1 <1>         0.0220 
     38 H8         11.5299   -4.5000  -15.2906 H         1 <1>         0.0220 
     39 H9          8.2840   -0.8821  -13.2987 H         1 <1>         0.0386 
     40 H10         9.1780   -0.5239  -11.7949 H         1 <1>         0.0386 
     41 H11         7.5616   -1.2710  -11.7308 H         1 <1>         0.0386 
     42 H12         8.7210   -4.0072  -14.6341 H         1 <1>         0.0493 
     43 H13         9.8663   -1.4786  -15.9182 H         1 <1>         0.1042 
     44 H14         8.5103   -4.3039  -18.5159 H         1 <1>         0.0429 
     45 H15         7.5833   -4.7554  -17.0507 H         1 <1>         0.0429 
     46 H16         9.3713   -4.7429  -17.0248 H         1 <1>         0.0429 
     47 H17         7.0827   -2.2763  -18.4633 H         1 <1>         0.0917 
     48 H18         6.5724    0.0012  -18.9134 H         1 <1>         0.2516 
     49 H19        11.2716   -1.1052  -13.0230 H         1 <1>         0.1785 
     50 H20         9.5684   -1.9549   -9.4179 H         1 <1>         0.0422 
     51 H21         9.7757   -3.6266   -8.8004 H         1 <1>         0.0422 
     52 H22         7.8013   -3.2917   -7.2619 H         1 <1>         0.0276 
     53 H23         7.5869   -1.6342   -7.8968 H         1 <1>         0.0276 
     54 H24         9.8823   -1.0166   -7.0421 H         1 <1>         0.0266 
     55 H25        10.0782   -2.6686   -6.3894 H         1 <1>         0.0266 
     56 H26         8.0780   -2.3093   -4.8947 H         1 <1>         0.0265 
     57 H27         7.8875   -0.6585   -5.5515 H         1 <1>         0.0265 
     58 H28        10.1768   -0.0535   -4.6844 H         1 <1>         0.0265 
     59 H29        10.3551   -1.7005   -4.0146 H         1 <1>         0.0265 
     60 H30         8.3479   -1.3142   -2.5394 H         1 <1>         0.0265 
     61 H31         8.1713    0.3314   -3.2119 H         1 <1>         0.0265 
     62 H32        10.4609    0.9288   -2.3345 H         1 <1>         0.0265 
     63 H33        10.6210   -0.7138   -1.6504 H         1 <1>         0.0265 
     64 H34         8.6026   -0.2968   -0.1943 H         1 <1>         0.0265 
     65 H35         8.4568    1.3494   -0.8742 H         1 <1>         0.0265 
     66 H36        10.7407    1.9244    0.0250 H         1 <1>         0.0263 
     67 H37        10.8889    0.2771    0.7026 H         1 <1>         0.0263 
     68 H38         8.7369    2.3516    1.4993 H         1 <1>         0.0230 
     69 H39        10.1719    1.9061    2.4687 H         1 <1>         0.0230 
     70 H40         8.8837    0.7011    2.1764 H         1 <1>         0.0230 
@<TRIPOS>BOND
     1    2    1 1    
     2    2    3 1    
     3    3    4 1    
     4    4    5 2    
     5    5    6 1    
     6    1    6 1    
     7    1    7 1    
     8    1    8 1    
     9    3    9 2    
    10    4   10 1    
    11    5   11 1    
    12    6   12 1    
    13   12   13 2    
    14   13   14 1    
    15   14   15 1    
    16   14   16 2    
    17   16   17 1    
    18   17   18 2    
    19   17   19 1    
    20    6   20 1    
    21   10   21 1    
    22   21   22 1    
    23   22   23 1    
    24   23   24 1    
    25   24   25 1    
    26   25   26 1    
    27   26   27 1    
    28   27   28 1    
    29   28   29 1    
    30   29   30 1    
    31    2   31 1    
    32    2   32 1    
    33    7   33 1    
    34    7   34 1    
    35    7   35 1    
    36    8   36 1    
    37    8   37 1    
    38    8   38 1    
    39   11   39 1    
    40   11   40 1    
    41   11   41 1    
    42   12   42 1    
    43   13   43 1    
    44   15   44 1    
    45   15   45 1    
    46   15   46 1    
    47   16   47 1    
    48   19   48 1    
    49   20   49 1    
    50   21   50 1    
    51   21   51 1    
    52   22   52 1    
    53   22   53 1    
    54   23   54 1    
    55   23   55 1    
    56   24   56 1    
    57   24   57 1    
    58   25   58 1    
    59   25   59 1    
    60   26   60 1    
    61   26   61 1    
    62   27   62 1    
    63   27   63 1    
    64   28   64 1    
    65   28   65 1    
    66   29   66 1    
    67   29   67 1    
    68   30   68 1    
    69   30   69 1    
    70   30   70 1    
@<TRIPOS>SUBSTRUCTURE
     1 ****        2 TEMP              0 ****  ****    0 ROOT 
@<TRIPOS>NORMAL
@<TRIPOS>FF_PBC
FORCE_FIELD_SETUP_FEATURE Force Field Setup information
v1.0  0 0.000000 0.000000 0.000000 0.000000 0.000000 0.000000 NONE 0 0 0 0 1 0 0 0 0 0 0 0 0
