#	Name:			PISM00880.1
#	Creating user name:	baoopengkun
#	Creation time:		Sat Jan 12 21:44:40 2019

#	Modifying user name:	baoopengkun
#	Modification time:	Sat Jan 12 21:46:18 2019

@<TRIPOS>MOLECULE
PISM00880.1
   26    27     1     1     0
SMALL
GAST_HUCK


@<TRIPOS>ATOM
      1 C1         -5.2060   -6.1487    2.5747 C.ar      1 <1>        -0.0406 
      2 C2         -5.3678   -5.0916    3.4758 C.ar      1 <1>        -0.0559 
      3 C3         -4.2536   -4.3712    3.9143 C.ar      1 <1>        -0.0573 
      4 C4         -2.9798   -4.7066    3.4474 C.ar      1 <1>        -0.0559 
      5 C5         -2.8213   -5.7587    2.5408 C.ar      1 <1>        -0.0406 
      6 C6         -3.9331   -6.4869    2.1015 C.ar      1 <1>         0.0623 
      7 C7         -3.7536   -7.6301    1.1251 C.2       1 <1>         0.2682 
      8 O8         -4.6855   -8.3911    0.9159 O.2       1 <1>        -0.3565 
      9 O9         -2.5804   -7.7794    0.4965 O.3       1 <1>        -0.2275 
     10 C10        -2.4931   -8.9830   -0.2835 C.3       1 <1>         0.2404 
     11 O11        -2.4104  -10.1238    0.5967 O.3       1 <1>        -0.2315 
     12 C12        -1.1916  -10.6183    0.4187 C.2       1 <1>         0.2494 
     13 C13        -0.3759   -9.9362   -0.5788 C.2       1 <1>         0.0291 
     14 C14        -1.1671   -8.9527   -1.0029 C.2       1 <1>        -0.0022 
     15 C15         1.0277  -10.2713   -1.0061 C.3       1 <1>        -0.0323 
     16 O16        -0.7869  -11.5828    1.0444 O.2       1 <1>        -0.3691 
     17 H1         -6.0772   -6.7060    2.2430 H         1 <1>         0.0672 
     18 H2         -6.3590   -4.8303    3.8357 H         1 <1>         0.0630 
     19 H3         -4.3778   -3.5525    4.6174 H         1 <1>         0.0654 
     20 H4         -2.1127   -4.1496    3.7908 H         1 <1>         0.0630 
     21 H5         -1.8279   -6.0101    2.1830 H         1 <1>         0.0672 
     22 H6         -3.3068   -9.0988   -1.0208 H         1 <1>         0.1195 
     23 H7         -0.9012   -8.2176   -1.7614 H         1 <1>         0.0705 
     24 H8          1.0055  -11.1347   -1.6875 H         1 <1>         0.0347 
     25 H9          1.6337  -10.5282   -0.1239 H         1 <1>         0.0347 
     26 H10         1.4933   -9.4185   -1.5218 H         1 <1>         0.0347 
@<TRIPOS>BOND
     1    2    1 ar   
     2    2    3 ar   
     3    3    4 ar   
     4    4    5 ar   
     5    5    6 ar   
     6    1    6 ar   
     7    6    7 1    
     8    7    8 2    
     9    7    9 1    
    10    9   10 1    
    11   10   11 1    
    12   11   12 1    
    13   12   13 1    
    14   13   14 2    
    15   10   14 1    
    16   13   15 1    
    17   12   16 2    
    18    1   17 1    
    19    2   18 1    
    20    3   19 1    
    21    4   20 1    
    22    5   21 1    
    23   10   22 1    
    24   14   23 1    
    25   15   24 1    
    26   15   25 1    
    27   15   26 1    
@<TRIPOS>SUBSTRUCTURE
     1 ****        2 TEMP              0 ****  ****    0 ROOT 
@<TRIPOS>NORMAL
@<TRIPOS>FF_PBC
FORCE_FIELD_SETUP_FEATURE Force Field Setup information
v1.0  0 0.000000 0.000000 0.000000 0.000000 0.000000 0.000000 NONE 0 0 0 0 1 0 0 0 0 0 0 0 0
