#	Name:			PISM00941.1
#	Creating user name:	baoopengkun
#	Creation time:		Wed Dec 12 22:41:34 2018

#	Modifying user name:	baoopengkun
#	Modification time:	Wed Dec 12 23:13:09 2018

@<TRIPOS>MOLECULE
PISM00941.1
   17    17     1     2     0
SMALL
GAST_HUCK


@<TRIPOS>ATOM
      1 C1          4.3733   -4.7635    5.1929 C.3       1 <1>        -0.0421 
      2 C2          3.4134   -5.7445    5.8146 C.2       1 <1>         0.0191 
      3 C3          3.5938   -6.6997    6.7287 C.2       1 <1>         0.0100 
      4 C4          2.3027   -7.4221    7.0299 C.3       1 <1>         0.2205 
      5 O5          1.3255   -6.7927    6.1803 O.3       1 <1>        -0.2380 
      6 C6          1.9879   -5.8516    5.5173 C.2       1 <1>         0.2319 
      7 C7          4.8464   -7.1189    7.4577 C.3       1 <1>        -0.0228 
      8 H8          2.3866   -8.4946    6.7829 H         1 <1>         0.1167 
      9 O9          1.4349   -5.1274    4.7075 O.2       1 <1>        -0.3822 
     10 O10         1.9517   -7.2000    8.4014 O.3       1 <1>        -0.3494 
     11 H1          5.3991   -4.8603    5.5720 H         1 <1>         0.0303 
     12 H2          4.0185   -3.7425    5.3978 H         1 <1>         0.0303 
     13 H3          4.3850   -4.9202    4.1041 H         1 <1>         0.0303 
     14 H4          5.7276   -6.5324    7.1662 H         1 <1>         0.0429 
     15 H5          5.0523   -8.1793    7.2494 H         1 <1>         0.0429 
     16 H6          4.6916   -6.9950    8.5401 H         1 <1>         0.0429 
     17 H7          1.0856   -7.5427    8.5962 H         1 <1>         0.2166 
@<TRIPOS>BOND
     1    2    1 1    
     2    2    3 2    
     3    3    4 1    
     4    4    5 1    
     5    5    6 1    
     6    2    6 1    
     7    3    7 1    
     8    4    8 1    
     9    6    9 2    
    10    4   10 1    
    11    1   11 1    
    12    1   12 1    
    13    1   13 1    
    14    7   14 1    
    15    7   15 1    
    16    7   16 1    
    17   10   17 1    
@<TRIPOS>SUBSTRUCTURE
     1 ****        2 TEMP              0 ****  ****    0 ROOT 
@<TRIPOS>NORMAL
@<TRIPOS>FF_PBC
FORCE_FIELD_SETUP_FEATURE Force Field Setup information
v1.0  0 0.000000 0.000000 0.000000 0.000000 0.000000 0.000000 NONE 0 0 0 0 1 0 0 0 0 0 0 0 0
@<TRIPOS>RENDERING_ATTRS
ANTIALIASED_LINES 
*
