#	Name:			PISM00792.1
#	Creating user name:	baoopengkun
#	Creation time:		Tue Jan 08 16:06:36 2019

#	Modifying user name:	baoopengkun
#	Modification time:	Tue Jan 08 16:06:52 2019

@<TRIPOS>MOLECULE
PISM00792.1
   48    52     1     1     0
SMALL
GAST_HUCK


@<TRIPOS>ATOM
      1 C1         22.4967   11.9408  -27.5201 C.2       1 <1>         0.0272 
      2 C2         20.8085   12.9262  -25.9265 C.ar      1 <1>        -0.0661 
      3 C3         19.5426   13.4204  -25.5830 C.ar      1 <1>        -0.0406 
      4 C4         18.5656   13.4256  -26.5775 C.ar      1 <1>         0.0668 
      5 C5         18.8512   12.9415  -27.8459 C.ar      1 <1>        -0.0092 
      6 C6         20.0973   12.4284  -28.1985 C.ar      1 <1>        -0.0626 
      7 C7         17.5404   13.1457  -28.5565 C.2       1 <1>        -0.0153 
      8 C8         16.7095   13.6837  -27.6711 C.2       1 <1>         0.1044 
      9 N9         17.2834   13.8571  -26.5102 N.pl3     1 <1>        -0.2672 
     10 C10        16.6430   14.4260  -25.3308 C.3       1 <1>         0.0370 
     11 C11        15.4143   13.9025  -28.3065 C.2       1 <1>         0.1400 
     12 O12        14.4054   14.3898  -27.8229 O.2       1 <1>        -0.4040 
     13 C13        15.5835   13.3998  -29.6827 C.2       1 <1>         0.0306 
     14 C14        16.9989   12.9048  -29.9385 C.3       1 <1>         0.0055 
     15 C15        14.6055   13.3792  -30.5938 C.2       1 <1>         0.0832 
     16 O16        14.8553   12.8952  -31.8192 O.3       1 <1>        -0.2667 
     17 C17        13.7355   12.9709  -32.7186 C.3       1 <1>         0.2401 
     18 C18        13.3102   14.3979  -32.9721 C.2       1 <1>        -0.0007 
     19 C19        12.0281   14.5610  -32.6508 C.2       1 <1>         0.0293 
     20 C20        11.6204   13.2418  -32.1774 C.2       1 <1>         0.2496 
     21 O21        12.5700   12.3133  -32.1814 O.3       1 <1>        -0.2302 
     22 C22        11.1984   15.8129  -32.7373 C.3       1 <1>        -0.0323 
     23 O23        10.4874   13.0029  -31.7977 O.2       1 <1>        -0.3691 
     24 C24        24.4006   11.3273  -28.7287 C.2       1 <1>        -0.0777 
     25 C25        24.8274   11.0492  -27.4951 C.2       1 <1>        -0.0086 
     26 S26        23.6173   11.3975  -26.2401 S.3       1 <1>        -0.0424 
     27 H1         21.5800   12.9280  -25.1643 H         1 <1>         0.0551 
     28 C28        23.0296   11.8557  -28.7442 C.2       1 <1>        -0.0722 
     29 H2         19.3320   13.7858  -24.5839 H         1 <1>         0.0550 
     30 H3         20.2556   12.0338  -29.1942 H         1 <1>         0.0558 
     31 H4         16.6622   13.6904  -24.5126 H         1 <1>         0.0555 
     32 H5         15.5955   14.7006  -25.5284 H         1 <1>         0.0555 
     33 H6         17.1875   15.3297  -25.0178 H         1 <1>         0.0555 
     34 C34        17.7613   13.7632  -30.9765 C.3       1 <1>        -0.0509 
     35 H8         17.0160   11.8315  -30.1868 H         1 <1>         0.0507 
     36 C36        21.0987   12.4429  -27.2153 C.ar      1 <1>        -0.0243 
     37 H9         13.6339   13.7661  -30.2774 H         1 <1>         0.1132 
     38 H10        14.0152   12.4946  -33.6722 H         1 <1>         0.1214 
     39 H11        13.9642   15.1769  -33.3619 H         1 <1>         0.0706 
     40 H12        10.8527   15.9535  -33.7721 H         1 <1>         0.0347 
     41 H13        11.7948   16.6865  -32.4338 H         1 <1>         0.0347 
     42 H14        10.3232   15.7332  -32.0749 H         1 <1>         0.0347 
     43 H15        24.9988   11.1813  -29.6280 H         1 <1>         0.0415 
     44 H16        25.8150   10.6491  -27.2674 H         1 <1>         0.0717 
     45 H17        22.5460   12.1396  -29.6770 H         1 <1>         0.0410 
     46 H7         18.8167   13.4525  -31.0150 H         1 <1>         0.0265 
     47 H18        17.7153   14.8277  -30.6984 H         1 <1>         0.0265 
     48 H19        17.3224   13.6393  -31.9777 H         1 <1>         0.0265 
@<TRIPOS>BOND
     1    1   36 1    
     2    3    2 ar   
     3    4    3 ar   
     4    5    4 ar   
     5    6    5 ar   
     6   24   28 1    
     7    5    7 1    
     8    7    8 2    
     9    8    9 1    
    10    4    9 1    
    11    9   10 1    
    12    8   11 1    
    13   11   12 2    
    14   13   11 1    
    15   14   13 1    
    16    7   14 1    
    17   13   15 2    
    18   15   16 1    
    19   16   17 1    
    20   17   18 1    
    21   18   19 2    
    22   20   19 1    
    23   21   20 1    
    24   17   21 1    
    25   19   22 1    
    26   20   23 2    
    27   36    6 ar   
    28   25   24 2    
    29   26   25 1    
    30    1   26 1    
    31    2   27 1    
    32    1   28 2    
    33    3   29 1    
    34    6   30 1    
    35   10   31 1    
    36   10   32 1    
    37   10   33 1    
    38   14   34 1    
    39   14   35 1    
    40   15   37 1    
    41    2   36 ar   
    42   17   38 1    
    43   18   39 1    
    44   22   40 1    
    45   22   41 1    
    46   22   42 1    
    47   24   43 1    
    48   25   44 1    
    49   28   45 1    
    50   34   46 1    
    51   34   47 1    
    52   34   48 1    
@<TRIPOS>SUBSTRUCTURE
     1 ****        2 TEMP              0 ****  ****    0 ROOT 
@<TRIPOS>NORMAL
@<TRIPOS>FF_PBC
FORCE_FIELD_SETUP_FEATURE Force Field Setup information
v1.0  0 0.000000 0.000000 0.000000 0.000000 0.000000 0.000000 NONE 0 0 0 0 1 0 0 0 0 0 0 0 0
