#	Name:			PISM01011
#	Creating user name:	malab
#	Creation time:		Tue Jul 02 10:08:54 2019

#	Modifying user name:	malab
#	Modification time:	Tue Jul 02 10:14:57 2019

@<TRIPOS>MOLECULE
PISM01011
   55    57     1     1     0
SMALL
GAST_HUCK


@<TRIPOS>ATOM
      1 C1          4.5909    4.0858    8.2297 C.3       1 <1>        -0.0353 
      2 C2          5.9394    3.9296    8.9038 C.2       1 <1>        -0.0766 
      3 C3          6.3483    5.0528    9.8283 C.3       1 <1>        -0.0210 
      4 C4          7.7831    5.5619    9.5380 C.3       1 <1>        -0.0292 
      5 C5          8.8635    4.7292   10.2713 C.3       1 <1>        -0.0077 
      6 C6          8.9209    3.2671    9.9066 C.2       1 <1>        -0.0210 
      7 C7          8.0235    2.5219    9.2576 C.2       1 <1>        -0.0193 
      8 C8          6.7026    2.8494    8.6853 C.2       1 <1>        -0.0930 
      9 C9          8.6037    1.1747    9.1813 C.2       1 <1>         0.0886 
     10 C10         9.8593    0.9914    9.9988 C.3       1 <1>         0.1382 
     11 C11        10.1510    2.4944   10.3123 C.3       1 <1>         0.1231 
     12 O12         8.1170    0.2899    8.4956 O.2       1 <1>        -0.3873 
     13 C13        10.8977    0.1579    9.2697 C.2       1 <1>         0.1022 
     14 C14        12.2218    0.6611    8.8620 C.2       1 <1>         0.2521 
     15 O15         9.5332    0.3196   11.2356 O.3       1 <1>        -0.4429 
     16 C16        10.6420   -1.1201    8.9613 C.2       1 <1>         0.1679 
     17 O17         9.4825   -1.6753    9.3443 O.3       1 <1>        -0.1891 
     18 C18         9.3229   -3.0453    8.9458 C.3       1 <1>         0.2675 
     19 O19         9.5338   -3.1858    7.5263 O.3       1 <1>        -0.2254 
     20 C20         8.3569   -3.5502    7.0327 C.2       1 <1>         0.2500 
     21 C21         7.2871   -3.7091    8.0117 C.2       1 <1>         0.0297 
     22 C22         7.8769   -3.4136    9.1684 C.2       1 <1>         0.0047 
     23 O23         8.1941   -3.7458    5.8410 O.2       1 <1>        -0.3691 
     24 C24         5.8590   -4.1180    7.7749 C.3       1 <1>        -0.0323 
     25 O25        11.3977    3.0941    9.8970 O.3       1 <1>        -0.2680 
     26 C26        11.5860    3.4548    8.6120 C.2       1 <1>         0.2324 
     27 C27        10.6074    3.1871    7.4930 C.3       1 <1>         0.0374 
     28 O28        12.6116    4.0619    8.3533 O.2       1 <1>        -0.3705 
     29 O29        12.4269    0.8317    7.6730 O.2       1 <1>        -0.3646 
     30 O30        13.2152    0.8816    9.7374 O.3       1 <1>        -0.2834 
     31 C31        12.9557    0.4912   11.1001 C.3       1 <1>         0.0643 
     32 H1          3.8124    4.2148    8.9968 H         1 <1>         0.0403 
     33 H2          4.3125    3.2217    7.6078 H         1 <1>         0.0403 
     34 H3          4.6053    4.9768    7.5840 H         1 <1>         0.0403 
     35 H4          6.2410    4.7253   10.8741 H         1 <1>         0.0441 
     36 H5          5.6615    5.9031    9.6802 H         1 <1>         0.0441 
     37 H6          7.8757    6.6013    9.8998 H         1 <1>         0.0321 
     38 H7          7.9657    5.5684    8.4509 H         1 <1>         0.0321 
     39 H8          8.7108    4.7988   11.3601 H         1 <1>         0.0492 
     40 H9          9.8418    5.1828   10.0426 H         1 <1>         0.0492 
     41 H10         6.3236    2.0852    8.0071 H         1 <1>         0.0229 
     42 H11        10.1991    2.5800   11.4093 H         1 <1>         0.0736 
     43 H12         9.1147   -0.5246   11.0929 H         1 <1>         0.1861 
     44 H13        11.4020   -1.6765    8.4039 H         1 <1>         0.2029 
     45 H14         9.9914   -3.7213    9.5053 H         1 <1>         0.1277 
     46 H15         7.3845   -3.4265   10.1400 H         1 <1>         0.0711 
     47 H16         5.5896   -4.9472    8.4460 H         1 <1>         0.0347 
     48 H17         5.7226   -4.4441    6.7328 H         1 <1>         0.0347 
     49 H18         5.1948   -3.2633    7.9717 H         1 <1>         0.0347 
     50 H19         9.7759    3.9030    7.5260 H         1 <1>         0.0483 
     51 H20        10.2209    2.1633    7.4905 H         1 <1>         0.0483 
     52 H21        11.1289    3.3316    6.5350 H         1 <1>         0.0483 
     53 H22        12.1540    1.0791   11.5661 H         1 <1>         0.0574 
     54 H23        13.8788    0.6801   11.6675 H         1 <1>         0.0574 
     55 H24        12.7203   -0.5818   11.1783 H         1 <1>         0.0574 
@<TRIPOS>BOND
     1    2    1 1    
     2    2    3 1    
     3    3    4 1    
     4    4    5 1    
     5    5    6 1    
     6    6    7 2    
     7    7    8 1    
     8    2    8 2    
     9    7    9 1    
    10    9   10 1    
    11   10   11 1    
    12    6   11 1    
    13    9   12 2    
    14   10   13 1    
    15   13   14 1    
    16   10   15 1    
    17   13   16 2    
    18   16   17 1    
    19   17   18 1    
    20   18   19 1    
    21   19   20 1    
    22   20   21 1    
    23   21   22 2    
    24   18   22 1    
    25   20   23 2    
    26   21   24 1    
    27   11   25 1    
    28   25   26 1    
    29   26   27 1    
    30   26   28 2    
    31   14   29 2    
    32   14   30 1    
    33   30   31 1    
    34    1   32 1    
    35    1   33 1    
    36    1   34 1    
    37    3   35 1    
    38    3   36 1    
    39    4   37 1    
    40    4   38 1    
    41    5   39 1    
    42    5   40 1    
    43    8   41 1    
    44   11   42 1    
    45   15   43 1    
    46   16   44 1    
    47   18   45 1    
    48   22   46 1    
    49   24   47 1    
    50   24   48 1    
    51   24   49 1    
    52   27   50 1    
    53   27   51 1    
    54   27   52 1    
    55   31   53 1    
    56   31   54 1    
    57   31   55 1    
@<TRIPOS>SUBSTRUCTURE
     1 ****        2 TEMP              0 ****  ****    0 ROOT 
@<TRIPOS>NORMAL
@<TRIPOS>FF_PBC
FORCE_FIELD_SETUP_FEATURE Force Field Setup information
v1.0  0 0.000000 0.000000 0.000000 0.000000 0.000000 0.000000 NONE 0 0 0 0 1 0 0 0 0 0 0 0 0
