#	Name:			PISM00670
#	Creating user name:	baoopengkun
#	Creation time:		Sat Dec 08 16:54:01 2018

#	Modifying user name:	baoopengkun
#	Modification time:	Sat Dec 08 16:54:16 2018

@<TRIPOS>MOLECULE
PISM00670
   77    80     1     2     0
SMALL
GAST_HUCK


@<TRIPOS>ATOM
      1 C1         -7.1754   30.1549  -16.2852 C.3       1 <1>        -0.0172 
      2 C2         -6.7269   31.5260  -15.6831 C.3       1 <1>         0.0814 
      3 C3         -7.6771   32.6659  -16.1275 C.3       1 <1>         0.0827 
      4 C4         -7.6998   32.7900  -17.6801 C.3       1 <1>         0.0103 
      5 C5         -7.2123   31.5090  -18.4373 C.3       1 <1>         0.1363 
      6 C6         -7.7078   30.1896  -17.7666 C.3       1 <1>         0.0077 
      7 C7         -7.1098   28.9646  -18.5743 C.3       1 <1>        -0.0288 
      8 C8         -7.2944   28.9738  -20.1346 C.3       1 <1>        -0.0190 
      9 C9         -7.1235   30.3986  -20.7452 C.3       1 <1>         0.0285 
     10 C10        -7.6951   31.4779  -19.8710 C.2       1 <1>         0.1590 
     11 C11        -7.4087   27.5585  -17.9480 C.3       1 <1>        -0.0489 
     12 C12        -7.5580   26.4382  -19.0160 C.3       1 <1>        -0.0468 
     13 C13        -8.6791   26.7449  -20.0627 C.3       1 <1>        -0.0258 
     14 C14        -8.5387   28.1882  -20.6625 C.3       1 <1>        -0.0302 
     15 C15        -8.7221   25.7481  -21.2858 C.3       1 <1>        -0.0328 
     16 C16        -9.2288   26.6375  -22.4509 C.3       1 <1>        -0.0492 
     17 C17        -8.5517   28.0056  -22.2096 C.3       1 <1>        -0.0490 
     18 C18        -7.4850   24.8444  -21.6527 C.3       1 <1>        -0.0405 
     19 C19        -7.8275   23.6493  -22.6145 C.3       1 <1>        -0.0502 
     20 C20        -8.9614   22.6831  -22.1440 C.3       1 <1>        -0.0526 
     21 C21       -10.3303   22.9807  -22.8321 C.3       1 <1>        -0.0507 
     22 C22       -11.5256   22.1877  -22.2213 C.3       1 <1>        -0.0467 
     23 C23       -12.7650   22.2987  -23.1548 C.3       1 <1>        -0.0627 
     24 C24       -11.9075   22.7027  -20.8028 C.3       1 <1>        -0.0627 
     25 C25        -6.2663   25.5872  -22.2799 C.3       1 <1>        -0.0621 
     26 C26        -9.2770   30.1986  -17.7651 C.3       1 <1>        -0.0576 
     27 C27       -10.0703   26.6433  -19.3378 C.3       1 <1>        -0.0590 
     28 H28        -8.6810   32.4362  -15.7311 H         1 <1>         0.0618 
     29 O29        -5.7699   31.4688  -18.4702 O.3       1 <1>        -0.3851 
     30 O30        -8.4993   32.2821  -20.3153 O.2       1 <1>        -0.3296 
     31 H1         -7.9593   29.7298  -15.6377 H         1 <1>         0.0295 
     32 H2         -6.3068   29.4885  -16.1788 H         1 <1>         0.0295 
     33 O33        -5.3798   31.8966  -16.0340 O.3       1 <1>        -0.3892 
     34 H4         -6.7566   31.4586  -14.5796 H         1 <1>         0.0619 
     35 O35        -7.2936   33.9422  -15.5747 O.3       1 <1>        -0.3893 
     36 H6         -7.0489   33.6260  -17.9793 H         1 <1>         0.0304 
     37 H7         -8.7193   33.0773  -17.9825 H         1 <1>         0.0304 
     38 H8         -6.0151   29.0859  -18.4743 H         1 <1>         0.0309 
     39 H9         -6.4510   28.4051  -20.5572 H         1 <1>         0.0331 
     40 H10        -7.5661   30.4664  -21.7492 H         1 <1>         0.0490 
     41 H11        -6.0533   30.6387  -20.8539 H         1 <1>         0.0490 
     42 H12        -8.3025   27.5638  -17.3172 H         1 <1>         0.0268 
     43 H13        -6.5896   27.2624  -17.2684 H         1 <1>         0.0268 
     44 H14        -7.7760   25.4802  -18.5159 H         1 <1>         0.0271 
     45 H15        -6.5728   26.3293  -19.4847 H         1 <1>         0.0271 
     46 H16        -9.4351   28.7805  -20.4369 H         1 <1>         0.0310 
     47 H17        -9.4934   25.0059  -21.0475 H         1 <1>         0.0309 
     48 H18       -10.3203   26.7754  -22.3754 H         1 <1>         0.0268 
     49 H19        -9.0146   26.2337  -23.4516 H         1 <1>         0.0268 
     50 H20        -9.0973   28.8073  -22.7365 H         1 <1>         0.0268 
     51 H21        -7.5326   27.9908  -22.6174 H         1 <1>         0.0268 
     52 H22        -7.1442   24.3695  -20.7172 H         1 <1>         0.0301 
     53 H23        -6.9100   23.0413  -22.7046 H         1 <1>         0.0268 
     54 H24        -8.0572   24.0145  -23.6270 H         1 <1>         0.0268 
     55 H25        -9.0122   22.7026  -21.0469 H         1 <1>         0.0265 
     56 H26        -8.7031   21.6455  -22.4200 H         1 <1>         0.0265 
     57 H27       -10.2227   22.7013  -23.8938 H         1 <1>         0.0268 
     58 H28       -10.5804   24.0504  -22.8164 H         1 <1>         0.0268 
     59 H29       -11.2479   21.1214  -22.1505 H         1 <1>         0.0295 
     60 H30       -13.6121   21.7261  -22.7460 H         1 <1>         0.0232 
     61 H31       -12.5373   21.8989  -24.1552 H         1 <1>         0.0232 
     62 H32       -13.0724   23.3507  -23.2599 H         1 <1>         0.0232 
     63 H33       -11.1022   22.5402  -20.0733 H         1 <1>         0.0232 
     64 H34       -12.7969   22.1700  -20.4321 H         1 <1>         0.0232 
     65 H35       -12.1375   23.7789  -20.8340 H         1 <1>         0.0232 
     66 H36        -5.9278   26.4391  -21.6843 H         1 <1>         0.0233 
     67 H37        -6.5030   25.9430  -23.2932 H         1 <1>         0.0233 
     68 H38        -5.4080   24.9023  -22.3645 H         1 <1>         0.0233 
     69 H39        -9.6935   31.0420  -17.2072 H         1 <1>         0.0234 
     70 H40        -9.7062   29.3115  -17.2889 H         1 <1>         0.0234 
     71 H41        -9.6922   30.2753  -18.7750 H         1 <1>         0.0234 
     72 H42       -10.2102   27.4119  -18.5717 H         1 <1>         0.0235 
     73 H43       -10.1887   25.6643  -18.8476 H         1 <1>         0.0235 
     74 H44       -10.9031   26.7623  -20.0469 H         1 <1>         0.0235 
     75 H3         -4.7220   31.2567  -15.7834 H         1 <1>         0.2099 
     76 H46        -5.3671   32.2332  -18.8685 H         1 <1>         0.2077 
     77 H5         -7.2315   33.9444  -14.6248 H         1 <1>         0.2099 
@<TRIPOS>BOND
     1    2    1 1    
     2    2    3 1    
     3    3    4 1    
     4    4    5 1    
     5    5    6 1    
     6    1    6 1    
     7    6    7 1    
     8    7    8 1    
     9    8    9 1    
    10    9   10 1    
    11    5   10 1    
    12    7   11 1    
    13   11   12 1    
    14   12   13 1    
    15   13   14 1    
    16    8   14 1    
    17   13   15 1    
    18   15   16 1    
    19   16   17 1    
    20   14   17 1    
    21   15   18 1    
    22   18   19 1    
    23   19   20 1    
    24   20   21 1    
    25   21   22 1    
    26   22   23 1    
    27   22   24 1    
    28   18   25 1    
    29    6   26 1    
    30   13   27 1    
    31    3   28 1    
    32    5   29 1    
    33   10   30 2    
    34    1   31 1    
    35    1   32 1    
    36    2   33 1    
    37    2   34 1    
    38    3   35 1    
    39    4   36 1    
    40    4   37 1    
    41    7   38 1    
    42    8   39 1    
    43    9   40 1    
    44    9   41 1    
    45   11   42 1    
    46   11   43 1    
    47   12   44 1    
    48   12   45 1    
    49   14   46 1    
    50   15   47 1    
    51   16   48 1    
    52   16   49 1    
    53   17   50 1    
    54   17   51 1    
    55   18   52 1    
    56   19   53 1    
    57   19   54 1    
    58   20   55 1    
    59   20   56 1    
    60   21   57 1    
    61   21   58 1    
    62   22   59 1    
    63   23   60 1    
    64   23   61 1    
    65   23   62 1    
    66   24   63 1    
    67   24   64 1    
    68   24   65 1    
    69   25   66 1    
    70   25   67 1    
    71   25   68 1    
    72   26   69 1    
    73   26   70 1    
    74   26   71 1    
    75   27   72 1    
    76   27   73 1    
    77   27   74 1    
    78   33   75 1    
    79   29   76 1    
    80   35   77 1    
@<TRIPOS>SUBSTRUCTURE
     1 ****        2 TEMP              0 ****  ****    0 ROOT 
@<TRIPOS>NORMAL
@<TRIPOS>FF_PBC
FORCE_FIELD_SETUP_FEATURE Force Field Setup information
v1.0  0 0.000000 0.000000 0.000000 0.000000 0.000000 0.000000 NONE 0 0 0 0 1 0 0 0 0 0 0 0 0
@<TRIPOS>RENDERING_ATTRS
ANTIALIASED_LINES 
*
