#	Name:			PISM00231.1
#	Creating user name:	14062
#	Creation time:		Sat Apr 06 01:34:04 2019

#	Modifying user name:	14062
#	Modification time:	Sat Apr 06 01:37:43 2019

@<TRIPOS>MOLECULE
PISM00231.1
   29    30     1     1     0
SMALL
GAST_HUCK


@<TRIPOS>ATOM
      1 C1         -4.7920    4.4371    3.9952 C.3       1 CN          0.0658 
      2 O2         -5.0887    3.3225    3.1318 O.3       1 CN         -0.2793 
      3 C3         -4.1343    2.9093    2.2737 C.2       1 CN          0.2497 
      4 O4         -4.3844    1.9173    1.6109 O.2       1 CN         -0.3691 
      5 C5         -2.8061    3.6237    2.1063 C.3       1 CN          0.1373 
      6 S6         -3.0897    5.1102    1.0819 S.3       1 CN         -0.1311 
      7 C7         -2.1539    4.5562   -0.3741 C.3       1 CN         -0.0006 
      8 C8         -2.0598    3.0255   -0.1931 C.3       1 CN         -0.0084 
      9 C9         -1.7623    2.7932    1.3059 C.3       1 CN          0.1202 
     10 O10        -1.7959    1.3811    1.5755 O.3       1 CN         -0.2750 
     11 C11        -1.6080    0.9794    2.8980 C.ar      1 CN          0.2342 
     12 N12        -1.1835    1.8593    3.8300 N.ar      1 CN         -0.2356 
     13 C13        -1.0306    1.4834    5.1166 C.ar      1 CN          0.0391 
     14 C14        -1.3012    0.1630    5.4891 C.ar      1 CN          0.0411 
     15 N15        -1.7055   -0.7231    4.5560 N.ar      1 CN         -0.2476 
     16 C16        -1.8599   -0.3454    3.2685 C.ar      1 CN          0.2290 
     17 C          -2.2799   -1.3061    2.2808 C.1       1 CN          0.1241 
     18 N          -2.6139   -2.0809    1.4869 N.1       1 CN         -0.3253 
     19 H1         -4.5363    5.3539    3.4443 H         1 CN          0.0577 
     20 H2         -4.0025    4.1933    4.7225 H         1 CN          0.0577 
     21 H3         -5.7109    4.6393    4.5651 H         1 CN          0.0577 
     22 H4         -2.3722    3.9113    3.0728 H         1 CN          0.0699 
     23 H5         -1.1541    5.0175   -0.3407 H         1 CN          0.0379 
     24 H6         -2.6586    4.8422   -1.3103 H         1 CN          0.0379 
     25 H7         -1.2784    2.5883   -0.8357 H         1 CN          0.0305 
     26 H8         -3.0240    2.5602   -0.4542 H         1 CN          0.0305 
     27 H9         -0.7463    3.1743    1.5125 H         1 CN          0.0703 
     28 H10        -0.6988    2.2073    5.8537 H         1 CN          0.0957 
     29 H11        -1.1884   -0.1549    6.5204 H         1 CN          0.0857 
@<TRIPOS>BOND
     1    2    1 1    
     2    3    2 1    
     3    3    4 2    
     4    5    3 1    
     5    5    6 1    
     6    6    7 1    
     7    8    7 1    
     8    9    8 1    
     9    9    5 1    
    10   10    9 1    
    11   11   10 1    
    12   11   12 ar   
    13   12   13 ar   
    14   14   13 ar   
    15   15   14 ar   
    16   16   15 ar   
    17   16   11 ar   
    18   17   18 3    
    19   17   16 1    
    20    1   19 1    
    21    1   20 1    
    22    1   21 1    
    23    5   22 1    
    24    7   23 1    
    25    7   24 1    
    26    8   25 1    
    27    8   26 1    
    28    9   27 1    
    29   13   28 1    
    30   14   29 1    
@<TRIPOS>SUBSTRUCTURE
     1 CN         17 PERM              0 ****  ****    0 ROOT 
@<TRIPOS>NORMAL
@<TRIPOS>FF_PBC
FORCE_FIELD_SETUP_FEATURE Force Field Setup information
v1.0  0 0.000000 0.000000 0.000000 0.000000 0.000000 0.000000 NONE 0 0 0 0 1 0 0 0 0 0 0 0 0
