#	Name:			PISM00984
#	Creating user name:	baoopengkun
#	Creation time:		Fri Jan 11 21:38:06 2019

#	Modifying user name:	baoopengkun
#	Modification time:	Fri Jan 11 21:40:16 2019

@<TRIPOS>MOLECULE
PISM00984
   37    39     1     1     0
SMALL
GAST_HUCK


@<TRIPOS>ATOM
      1 C1         -1.7957   -5.7664   -1.1546 C.2       1 <1>         0.2284 
      2 C2         -1.7823   -7.2359   -0.8674 C.3       1 <1>         0.0644 
      3 C3         -1.3851   -7.2762    0.6304 C.3       1 <1>         0.0644 
      4 C4         -1.0951   -5.8306    0.9121 C.2       1 <1>         0.2284 
      5 N5         -1.3715   -5.0955   -0.1254 N.pl3     1 <1>        -0.1389 
      6 O6         -2.1589   -5.3077   -2.2249 O.2       1 <1>        -0.3721 
      7 O7         -0.6607   -5.4436    1.9837 O.2       1 <1>        -0.3721 
      8 C8         -1.2360   -3.7458   -0.1389 C.ar      1 <1>         0.0892 
      9 C9         -0.6390   -3.1004   -1.2301 C.ar      1 <1>        -0.0336 
     10 C10        -0.5541   -1.7054   -1.2711 C.ar      1 <1>        -0.0439 
     11 C11        -1.0133   -0.9380   -0.1979 C.ar      1 <1>         0.1013 
     12 C12        -1.5492   -1.5852    0.9211 C.ar      1 <1>        -0.0439 
     13 C13        -1.6913   -2.9745    0.9353 C.ar      1 <1>        -0.0336 
     14 S14        -0.9269    0.8475   -0.3095 S.o2      1 <1>         0.0804 
     15 O15        -1.9680    1.2949   -1.2276 O.2       1 <1>        -0.1475 
     16 O16         0.4373    1.1756   -0.7012 O.2       1 <1>        -0.1475 
     17 N17        -1.0942    1.1754    0.7293 N.pl3     1 <1>        -0.1930 
     18 C18        -2.2574    1.6962    1.2137 C.ar      1 <1>         0.0627 
     19 C19        -3.5174    1.1436    0.9356 C.ar      1 <1>        -0.0399 
     20 C20        -4.6806    1.7043    1.4703 C.ar      1 <1>        -0.0627 
     21 C21        -4.6000    2.8238    2.3012 C.ar      1 <1>        -0.0043 
     22 C22        -3.3518    3.3851    2.5848 C.ar      1 <1>        -0.0627 
     23 C23        -2.1934    2.8229    2.0419 C.ar      1 <1>        -0.0399 
     24 I24        -6.3056    3.6342    3.1064 I         1 <1>        -0.0607 
     25 H1         -1.0216   -7.7039   -1.5122 H         1 <1>         0.0540 
     26 H2         -2.7677   -7.6852   -1.0696 H         1 <1>         0.0540 
     27 H3         -0.4922   -7.8920    0.8244 H         1 <1>         0.0540 
     28 H4         -2.2090   -7.6135    1.2788 H         1 <1>         0.0540 
     29 H5         -0.2317   -3.6805   -2.0527 H         1 <1>         0.0541 
     30 H6         -0.1246   -1.2136   -2.1392 H         1 <1>         0.0608 
     31 H7         -1.8647   -1.0178    1.7902 H         1 <1>         0.0608 
     32 H8         -2.1661   -3.4511    1.7874 H         1 <1>         0.0541 
     33 H9         -0.3229    1.0743    1.4162 H         1 <1>         0.2051 
     34 H10        -3.6120    0.2682    0.3043 H         1 <1>         0.0522 
     35 H11        -5.6502    1.2685    1.2439 H         1 <1>         0.0610 
     36 H12        -3.2861    4.2579    3.2277 H         1 <1>         0.0610 
     37 H13        -1.2315    3.2726    2.2642 H         1 <1>         0.0522 
@<TRIPOS>BOND
     1    2    1 1    
     2    2    3 1    
     3    3    4 1    
     4    4    5 1    
     5    1    5 1    
     6    1    6 2    
     7    4    7 2    
     8    5    8 1    
     9    8    9 ar   
    10    9   10 ar   
    11   10   11 ar   
    12   11   12 ar   
    13   12   13 ar   
    14    8   13 ar   
    15   11   14 1    
    16   14   15 2    
    17   14   16 2    
    18   14   17 1    
    19   17   18 1    
    20   18   19 ar   
    21   19   20 ar   
    22   20   21 ar   
    23   21   22 ar   
    24   22   23 ar   
    25   18   23 ar   
    26   21   24 1    
    27    2   25 1    
    28    2   26 1    
    29    3   27 1    
    30    3   28 1    
    31    9   29 1    
    32   10   30 1    
    33   12   31 1    
    34   13   32 1    
    35   17   33 1    
    36   19   34 1    
    37   20   35 1    
    38   22   36 1    
    39   23   37 1    
@<TRIPOS>SUBSTRUCTURE
     1 ****        2 TEMP              0 ****  ****    0 ROOT 
@<TRIPOS>NORMAL
@<TRIPOS>FF_PBC
FORCE_FIELD_SETUP_FEATURE Force Field Setup information
v1.0  0 0.000000 0.000000 0.000000 0.000000 0.000000 0.000000 NONE 0 0 0 0 1 0 0 0 0 0 0 0 0
