#	Name:			PISM00198
#	Creating user name:	14062
#	Creation time:		Wed Jun 19 15:19:13 2019

#	Modifying user name:	14062
#	Modification time:	Wed Jun 19 15:21:28 2019

@<TRIPOS>MOLECULE
PISM00198
   25    25     1     1     0
SMALL
GAST_HUCK


@<TRIPOS>ATOM
      1 C1         -4.9073   -0.9863   -3.2083 C.3       1 BENZYL      0.1804 
      2 O2         -4.6384   -2.2840   -3.7846 O.3       1 BENZYL     -0.2917 
      3 C2         -3.3042   -2.5754   -4.0789 C.ar      1 BENZYL      0.1096 
      4 C3         -2.8442   -2.4890   -5.3962 C.ar      1 BENZYL     -0.0315 
      5 C4         -1.4975   -2.7239   -5.6883 C.ar      1 BENZYL     -0.0564 
      6 C5         -0.6110   -3.0678   -4.6644 C.ar      1 BENZYL      0.0291 
      7 C6         -1.0772   -3.1944   -3.3532 C.ar      1 BENZYL     -0.0426 
      8 C7         -2.4245   -2.9632   -3.0620 C.ar      1 BENZYL      0.0688 
      9 Cl9         1.0813   -3.3418   -5.0240 Cl        1 BENZYL     -0.0810 
     10 Cl10       -3.0010   -3.1691   -1.4197 Cl        1 BENZYL     -0.0787 
     11 C11        -6.3442   -0.9181   -2.7206 C.2       1 BENZYL      0.2655 
     12 O12        -7.1773   -1.7362   -3.0717 O.2       1 BENZYL     -0.3672 
     13 O13        -6.7222    0.0606   -1.8882 O.3       1 BENZYL     -0.2904 
     14 C14        -4.6369    0.1495   -4.2351 C.3       1 BENZYL     -0.0060 
     15 C15        -5.6227    0.0922   -5.4325 C.3       1 BENZYL     -0.0603 
     16 H1         -4.2581   -0.8514   -2.3287 H         1 BENZYL      0.0912 
     17 H2         -3.5341   -2.2392   -6.1942 H         1 BENZYL      0.0543 
     18 H3         -1.1382   -2.6401   -6.7091 H         1 BENZYL      0.0597 
     19 H4         -0.3918   -3.4744   -2.5605 H         1 BENZYL      0.0601 
     20 H5         -6.0408    0.6708   -1.6366 H         1 BENZYL      0.2540 
     21 H6         -3.6026    0.0696   -4.6059 H         1 BENZYL      0.0318 
     22 H7         -4.7368    1.1326   -3.7464 H         1 BENZYL      0.0318 
     23 H8         -5.3477    0.8486   -6.1845 H         1 BENZYL      0.0232 
     24 H9         -6.6528    0.2953   -5.1009 H         1 BENZYL      0.0232 
     25 H10        -5.6018   -0.8991   -5.9088 H         1 BENZYL      0.0232 
@<TRIPOS>BOND
     1    2    3 1    
     2    3    4 ar   
     3    3    8 ar   
     4    8    7 ar   
     5    7    6 ar   
     6    6    5 ar   
     7    5    4 ar   
     8    2    1 1    
     9    6    9 1    
    10    8   10 1    
    11    1   11 1    
    12   11   12 2    
    13   11   13 1    
    14    1   14 1    
    15   14   15 1    
    16    1   16 1    
    17    4   17 1    
    18    5   18 1    
    19    7   19 1    
    20   13   20 1    
    21   14   21 1    
    22   14   22 1    
    23   15   23 1    
    24   15   24 1    
    25   15   25 1    
@<TRIPOS>SUBSTRUCTURE
     1 BENZYL      2 PERM              0 ****  ****    0 ROOT 
@<TRIPOS>NORMAL
@<TRIPOS>FF_PBC
FORCE_FIELD_SETUP_FEATURE Force Field Setup information
v1.0  0 0.000000 0.000000 0.000000 0.000000 0.000000 0.000000 NONE 0 0 0 0 1 0 0 0 0 0 0 0 0
