#	Name:			PISM01063
#	Creating user name:	Qinrunwen
#	Creation time:		Sun Mar 31 11:23:01 2019

#	Modifying user name:	Qinrunwen
#	Modification time:	Sun Mar 31 13:09:28 2019

@<TRIPOS>MOLECULE
PISM01063
   46    49     1     1     0
SMALL
GAST_HUCK


@<TRIPOS>ATOM
      1 C1          4.7846    6.3918    0.1959 C.ar      1 <1>        -0.0221 
      2 C2          3.4755    6.8555    0.0119 C.ar      1 <1>        -0.0255 
      3 C3          5.2043    5.2332   -0.4674 C.ar      1 <1>        -0.0565 
      4 C4          4.3346    4.5543   -1.3250 C.ar      1 <1>        -0.0548 
      5 C5          3.0284    5.0153   -1.5198 C.ar      1 <1>        -0.0309 
      6 C6          2.6008    6.1554   -0.8293 C.ar      1 <1>        -0.0530 
      7 C7          1.9730    2.8094   -2.1677 C.2       1 <1>         0.0543 
      8 N8          2.5468    2.2536   -1.1780 N.2       1 <1>        -0.2104 
      9 C9          1.1956    1.7546   -2.9134 C.ar      1 <1>         0.0861 
     10 C10         1.4711    0.6175   -2.1708 C.ar      1 <1>         0.1585 
     11 N11         2.2859    0.9228   -1.1348 N.pl3     1 <1>        -0.1891 
     12 C12         2.8282   -0.0109   -0.1544 C.3       1 <1>         0.0794 
     13 C13         1.6559   -0.6640    0.6265 C.3       1 <1>        -0.0319 
     14 C14         3.7373    0.7812    0.8268 C.3       1 <1>        -0.0319 
     15 C15         3.6693   -1.0902   -0.8891 C.3       1 <1>        -0.0319 
     16 C16         0.3698    1.6822   -4.0371 C.ar      1 <1>         0.1272 
     17 N17        -0.1326    0.4684   -4.3500 N.ar      1 <1>        -0.2661 
     18 C18         0.1443   -0.6336   -3.6153 C.ar      1 <1>         0.0558 
     19 N19         0.9441   -0.5692   -2.5282 N.ar      1 <1>        -0.2691 
     20 N20         0.0519    2.7423   -4.8134 N.pl3     1 <1>        -0.3122 
     21 C21         5.6582    7.0889    1.0404 C.ar      1 <1>        -0.0567 
     22 C22         5.2292    8.2436    1.7007 C.ar      1 <1>        -0.0634 
     23 C23         3.9259    8.7099    1.5132 C.ar      1 <1>        -0.0637 
     24 C24         3.0528    8.0171    0.6695 C.ar      1 <1>        -0.0577 
     25 C25         2.0919    4.2753   -2.4886 C.3       1 <1>         0.0237 
     26 H1          6.2095    4.8503   -0.3232 H         1 <1>         0.0620 
     27 H2          4.6803    3.6647   -1.8415 H         1 <1>         0.0589 
     28 H3          1.5801    6.5035   -0.9489 H         1 <1>         0.0535 
     29 H4          1.0174   -1.2575   -0.0435 H         1 <1>         0.0261 
     30 H5          1.0359    0.1171    1.0913 H         1 <1>         0.0261 
     31 H6          2.0412   -1.3281    1.4144 H         1 <1>         0.0261 
     32 H7          4.1676    0.1106    1.5864 H         1 <1>         0.0261 
     33 H8          3.1547    1.5631    1.3382 H         1 <1>         0.0261 
     34 H9          4.5601    1.2651    0.2778 H         1 <1>         0.0261 
     35 H10         4.1444   -1.7673   -0.1636 H         1 <1>         0.0261 
     36 H11         4.4541   -0.6072   -1.4907 H         1 <1>         0.0261 
     37 H12         3.0420   -1.6924   -1.5618 H         1 <1>         0.0261 
     38 H13        -0.2849   -1.5868   -3.9056 H         1 <1>         0.1029 
     39 H14         0.4111    3.6813   -4.6095 H         1 <1>         0.1845 
     40 H15        -0.5643    2.6050   -5.6275 H         1 <1>         0.1845 
     41 H16         6.6753    6.7402    1.1914 H         1 <1>         0.0619 
     42 H17         5.9067    8.7803    2.3589 H         1 <1>         0.0599 
     43 H18         3.5925    9.6096    2.0223 H         1 <1>         0.0611 
     44 H19         2.0438    8.3944    0.5315 H         1 <1>         0.0604 
     45 H20         1.0837    4.7133   -2.4652 H         1 <1>         0.0586 
     46 H21         2.5092    4.3911   -3.5001 H         1 <1>         0.0586 
@<TRIPOS>BOND
     1    2    1 ar   
     2    3    1 ar   
     3    4    3 ar   
     4    7    9 1    
     5    5    6 ar   
     6    6    2 ar   
     7    5    4 ar   
     8    7    8 2    
     9   25    7 1    
    10    9   10 ar   
    11   11   10 1    
    12    8   11 1    
    13   11   12 1    
    14   12   13 1    
    15   12   14 1    
    16   12   15 1    
    17   17   16 ar   
    18    9   16 ar   
    19   18   17 ar   
    20   19   18 ar   
    21   10   19 ar   
    22   16   20 1    
    23    1   21 ar   
    24   21   22 ar   
    25   23   22 ar   
    26   24   23 ar   
    27    2   24 ar   
    28    5   25 1    
    29    3   26 1    
    30    4   27 1    
    31    6   28 1    
    32   13   29 1    
    33   13   30 1    
    34   13   31 1    
    35   14   32 1    
    36   14   33 1    
    37   14   34 1    
    38   15   35 1    
    39   15   36 1    
    40   15   37 1    
    41   18   38 1    
    42   20   39 1    
    43   20   40 1    
    44   21   41 1    
    45   22   42 1    
    46   23   43 1    
    47   24   44 1    
    48   25   45 1    
    49   25   46 1    
@<TRIPOS>SUBSTRUCTURE
     1 ****        5 TEMP              0 ****  ****    0 ROOT 
@<TRIPOS>NORMAL
@<TRIPOS>FF_PBC
FORCE_FIELD_SETUP_FEATURE Force Field Setup information
v1.0  0 0.000000 0.000000 0.000000 0.000000 0.000000 0.000000 NONE 0 0 0 0 1 0 0 0 0 0 0 0 0
