#	Name:			PISM00560
#	Creating user name:	baoopengkun
#	Creation time:		Sun Dec 16 00:17:16 2018

#	Modifying user name:	baoopengkun
#	Modification time:	Sun Dec 16 00:21:17 2018

@<TRIPOS>MOLECULE
PISM00560
   26    27     1     1     0
SMALL
GAST_HUCK


@<TRIPOS>ATOM
      1 O1          1.8333    2.2720   14.7741 O.3       1 <1>        -0.1606 
      2 N2          0.8597    1.2647   14.9690 N.2       1 <1>        -0.1439 
      3 C3          0.1609    1.6512   15.9631 C.2       1 <1>         0.0176 
      4 C4          0.5995    2.9324   16.5106 C.2       1 <1>        -0.0189 
      5 H1         -0.6771    1.0791   16.3592 H         1 <1>         0.0692 
      6 H2          0.1726    3.4711   17.3544 H         1 <1>         0.0434 
      7 H3          2.8791    6.2346   16.5005 H         1 <1>         0.1725 
      8 C8          1.6174    3.2022   15.7008 C.2       1 <1>         0.1953 
      9 C9          2.4874    4.4008   15.7476 C.2       1 <1>         0.1742 
     10 N10         2.2330    5.4302   16.5126 N.pl3     1 <1>        -0.3228 
     11 N11         3.5024    4.3523   14.9764 N.2       1 <1>        -0.1386 
     12 O12         4.2078    5.5651   15.0999 O.3       1 <1>        -0.1529 
     13 C13         4.5460    6.0652   13.9047 C.2       1 <1>         0.3002 
     14 O14         5.2866    7.0348   13.8838 O.2       1 <1>        -0.3503 
     15 C15         4.0758    5.4902   12.5835 C.ar      1 <1>         0.0676 
     16 C16         4.9825    5.4123   11.5203 C.ar      1 <1>        -0.0400 
     17 C17         4.6022    4.8376   10.3039 C.ar      1 <1>        -0.0421 
     18 C18         3.3068    4.3403   10.1411 C.ar      1 <1>         0.0452 
     19 C19         2.3865    4.4453   11.1870 C.ar      1 <1>        -0.0421 
     20 C20         2.7617    5.0453   12.3928 C.ar      1 <1>        -0.0400 
     21 Cl21        2.8373    3.5896    8.6296 Cl        1 <1>        -0.0665 
     22 H4          1.4063    5.4625   17.1227 H         1 <1>         0.1725 
     23 H5          5.9911    5.7964   11.6395 H         1 <1>         0.0670 
     24 H6          5.3119    4.7748    9.4852 H         1 <1>         0.0635 
     25 H7          1.3789    4.0625   11.0595 H         1 <1>         0.0635 
     26 H8          2.0184    5.1713   13.1720 H         1 <1>         0.0670 
@<TRIPOS>BOND
     1    8    1 1    
     2    1    2 1    
     3    2    3 2    
     4    3    4 1    
     5    8    4 2    
     6    3    5 1    
     7    4    6 1    
     8   10    7 1    
     9    8    9 1    
    10    9   10 1    
    11    9   11 2    
    12   11   12 1    
    13   12   13 1    
    14   13   14 2    
    15   13   15 1    
    16   15   16 ar   
    17   16   17 ar   
    18   17   18 ar   
    19   19   18 ar   
    20   20   19 ar   
    21   15   20 ar   
    22   18   21 1    
    23   10   22 1    
    24   16   23 1    
    25   17   24 1    
    26   19   25 1    
    27   20   26 1    
@<TRIPOS>SUBSTRUCTURE
     1 ****        8 TEMP              0 ****  ****    0 ROOT 
@<TRIPOS>NORMAL
@<TRIPOS>FF_PBC
FORCE_FIELD_SETUP_FEATURE Force Field Setup information
v1.0  0 0.000000 0.000000 0.000000 0.000000 0.000000 0.000000 NONE 0 0 0 0 1 0 0 0 0 0 0 0 0
