#	Name:			PISM00500
#	Creating user name:	malab
#	Creation time:		Thu Apr 04 12:29:35 2019

#	Modifying user name:	malab
#	Modification time:	Thu Apr 04 12:30:26 2019

@<TRIPOS>MOLECULE
PISM00500
   39    39     1     1     0
SMALL
GAST_HUCK


@<TRIPOS>ATOM
      1 C1         28.9830   12.8650    1.7001 C.2       1 <1>        -0.0236 
      2 C2         27.8365   12.2510    1.3475 C.2       1 <1>         0.0363 
      3 N3         28.0802   10.9983    1.0162 N.pl3     1 <1>        -0.2521 
      4 C4         29.3511   10.7627    1.1376 C.2       1 <1>         0.0974 
      5 N5         29.9328   11.8009    1.5300 N.2       1 <1>        -0.3302 
      6 C6         27.1038   10.0011    0.5769 C.3       1 <1>         0.0584 
      7 C7         25.6372   10.5040    0.4948 C.3       1 <1>        -0.0245 
      8 C8         24.6751    9.3779    0.0250 C.3       1 <1>        -0.0504 
      9 C9         23.2091    9.8849   -0.0586 C.3       1 <1>        -0.0530 
     10 C10        22.2450    8.7551   -0.5136 C.3       1 <1>        -0.0531 
     11 C11        20.7794    9.2626   -0.6009 C.3       1 <1>        -0.0531 
     12 C12        19.8127    8.1296   -1.0422 C.3       1 <1>        -0.0531 
     13 C13        18.3480    8.6390   -1.1319 C.3       1 <1>        -0.0533 
     14 C14        17.3810    7.5048   -1.5684 C.3       1 <1>        -0.0559 
     15 C15        15.9188    8.0139   -1.6586 C.3       1 <1>        -0.0653 
     16 H1         29.1525   13.8902    2.0269 H         1 <1>         0.0444 
     17 H2         26.8797   12.7703    1.3563 H         1 <1>         0.0860 
     18 H3         29.8584    9.8190    0.9363 H         1 <1>         0.1215 
     19 H4         27.1506    9.1526    1.2789 H         1 <1>         0.0625 
     20 H5         27.4129    9.6421   -0.4185 H         1 <1>         0.0625 
     21 H6         25.5818   11.3453   -0.2153 H         1 <1>         0.0293 
     22 H7         25.3188   10.8557    1.4897 H         1 <1>         0.0293 
     23 H8         24.7277    8.5340    0.7326 H         1 <1>         0.0266 
     24 H9         24.9909    9.0164   -0.9676 H         1 <1>         0.0266 
     25 H10        23.1528   10.7224   -0.7734 H         1 <1>         0.0265 
     26 H11        22.8940   10.2542    0.9312 H         1 <1>         0.0265 
     27 H12        22.2990    7.9199    0.2040 H         1 <1>         0.0265 
     28 H13        22.5606    8.3820   -1.5019 H         1 <1>         0.0265 
     29 H14        20.7238   10.0921   -1.3250 H         1 <1>         0.0265 
     30 H15        20.4663    9.6437    0.3850 H         1 <1>         0.0265 
     31 H16        19.8663    7.3016   -0.3162 H         1 <1>         0.0265 
     32 H17        20.1259    7.7458   -2.0271 H         1 <1>         0.0265 
     33 H18        18.2925    9.4647   -1.8604 H         1 <1>         0.0265 
     34 H19        18.0345    9.0250   -0.1479 H         1 <1>         0.0265 
     35 H20        17.4299    6.6773   -0.8408 H         1 <1>         0.0263 
     36 H21        17.6885    7.1162   -2.5536 H         1 <1>         0.0263 
     37 H22        15.8404    8.8290   -2.3949 H         1 <1>         0.0230 
     38 H23        15.5809    8.3879   -0.6795 H         1 <1>         0.0230 
     39 H24        15.2509    7.1951   -1.9700 H         1 <1>         0.0230 
@<TRIPOS>BOND
     1    2    1 2    
     2    2    3 1    
     3    3    4 1    
     4    4    5 2    
     5    1    5 1    
     6    3    6 1    
     7    6    7 1    
     8    7    8 1    
     9    8    9 1    
    10    9   10 1    
    11   10   11 1    
    12   11   12 1    
    13   12   13 1    
    14   13   14 1    
    15   14   15 1    
    16    1   16 1    
    17    2   17 1    
    18    4   18 1    
    19    6   19 1    
    20    6   20 1    
    21    7   21 1    
    22    7   22 1    
    23    8   23 1    
    24    8   24 1    
    25    9   25 1    
    26    9   26 1    
    27   10   27 1    
    28   10   28 1    
    29   11   29 1    
    30   11   30 1    
    31   12   31 1    
    32   12   32 1    
    33   13   33 1    
    34   13   34 1    
    35   14   35 1    
    36   14   36 1    
    37   15   37 1    
    38   15   38 1    
    39   15   39 1    
@<TRIPOS>SUBSTRUCTURE
     1 ****        2 TEMP              0 ****  ****    0 ROOT 
@<TRIPOS>NORMAL
@<TRIPOS>FF_PBC
FORCE_FIELD_SETUP_FEATURE Force Field Setup information
v1.0  0 0.000000 0.000000 0.000000 0.000000 0.000000 0.000000 NONE 0 0 0 0 1 0 0 0 0 0 0 0 0
