#	Name:			PISM00999
#	Creating user name:	baoopengkun
#	Creation time:		Fri Jan 11 22:05:04 2019

#	Modifying user name:	baoopengkun
#	Modification time:	Fri Jan 11 22:43:30 2019

@<TRIPOS>MOLECULE
PISM00999
   41    43     1     1     0
SMALL
GAST_HUCK


@<TRIPOS>ATOM
      1 C1         16.1457    5.2600  -14.0862 C.3       1 <1>        -0.0365 
      2 C2         13.7979    9.7498  -13.8936 C.3       1 <1>        -0.0365 
      3 C3         21.0789   13.5001   -4.4041 C.2       1 <1>         0.0412 
      4 C4         21.3133   14.2147   -5.5072 C.2       1 <1>         0.0412 
      5 H1         16.7088    5.4117  -15.0195 H         1 <1>         0.0387 
      6 H2         15.1675    4.8148  -14.3255 H         1 <1>         0.0387 
      7 C7         20.1760   12.4148   -4.8100 C.2       1 <1>         0.2576 
      8 O8         19.7472   11.5697   -4.0438 O.2       1 <1>        -0.3492 
      9 N9         19.9322   12.5366   -6.0808 N.pl3     1 <1>        -0.1377 
     10 C10        20.5559   13.5610   -6.5829 C.2       1 <1>         0.2576 
     11 O11        20.5505   13.9499   -7.7382 O.2       1 <1>        -0.3492 
     12 C12        19.1277   11.7037   -6.7871 C.ar      1 <1>         0.0861 
     13 C13        19.2153   10.3174   -6.6149 C.ar      1 <1>        -0.0343 
     14 C14        18.3413    9.4615   -7.2918 C.ar      1 <1>        -0.0441 
     15 C15        17.3753    9.9822   -8.1572 C.ar      1 <1>         0.1026 
     16 C16        17.3338   11.3590   -8.3913 C.ar      1 <1>        -0.0441 
     17 C17        18.1918   12.2166   -7.6943 C.ar      1 <1>        -0.0343 
     18 S18        16.2378    8.8897   -8.9808 S.o2      1 <1>         0.0842 
     19 O19        16.0886    7.6972   -8.1724 O.2       1 <1>        -0.1461 
     20 O20        15.0518    9.6437   -9.3325 O.2       1 <1>        -0.1461 
     21 N21        17.0884    8.4547  -10.3672 N.am      1 <1>        -0.1917 
     22 C22        16.4309    8.1691  -11.5932 C.ar      1 <1>         0.0489 
     23 C23        16.6739    6.9594  -12.2511 C.ar      1 <1>        -0.0520 
     24 C24        15.9442    6.6147  -13.3943 C.ar      1 <1>        -0.0686 
     25 C25        15.0109    7.5209  -13.9101 C.ar      1 <1>        -0.0768 
     26 C26        14.8104    8.7631  -13.2995 C.ar      1 <1>        -0.0686 
     27 C27        15.5399    9.0900  -12.1514 C.ar      1 <1>        -0.0520 
     28 H3         16.6982    4.5546  -13.4476 H         1 <1>         0.0387 
     29 H4         13.9529    9.8351  -14.9794 H         1 <1>         0.0387 
     30 H5         13.8951   10.7516  -13.4495 H         1 <1>         0.0387 
     31 H6         12.7822    9.3744  -13.7014 H         1 <1>         0.0387 
     32 H7         21.4658   13.6710   -3.4002 H         1 <1>         0.0816 
     33 H8         21.9353   15.1033   -5.6076 H         1 <1>         0.0816 
     34 H9         19.9664    9.8955   -5.9555 H         1 <1>         0.0539 
     35 H10        18.4112    8.3891   -7.1443 H         1 <1>         0.0607 
     36 H11        16.6292   11.7642   -9.1104 H         1 <1>         0.0607 
     37 H12        18.1175   13.2872   -7.8567 H         1 <1>         0.0539 
     38 H13        18.0574    8.2326  -10.2751 H         1 <1>         0.2157 
     39 H14        17.4282    6.2844  -11.8634 H         1 <1>         0.0362 
     40 H15        14.4360    7.2576  -14.7926 H         1 <1>         0.0356 
     41 H16        15.4219   10.0654  -11.6954 H         1 <1>         0.0362 
@<TRIPOS>BOND
     1   24    1 1    
     2   26    2 1    
     3    4    3 2    
     4    1    5 1    
     5    1    6 1    
     6    1   28 1    
     7    3    7 1    
     8    7    8 2    
     9    9    7 1    
    10   10    9 1    
    11   10   11 2    
    12    4   10 1    
    13    9   12 1    
    14   12   13 ar   
    15   13   14 ar   
    16   14   15 ar   
    17   16   15 ar   
    18   17   16 ar   
    19   12   17 ar   
    20   15   18 1    
    21   18   19 2    
    22   18   20 2    
    23   18   21 1    
    24   21   22 1    
    25   22   23 ar   
    26   23   24 ar   
    27   24   25 ar   
    28   26   25 ar   
    29   27   26 ar   
    30   22   27 ar   
    31    2   29 1    
    32    2   30 1    
    33    2   31 1    
    34    3   32 1    
    35    4   33 1    
    36   13   34 1    
    37   14   35 1    
    38   16   36 1    
    39   17   37 1    
    40   21   38 1    
    41   23   39 1    
    42   25   40 1    
    43   27   41 1    
@<TRIPOS>SUBSTRUCTURE
     1 ****        4 TEMP              0 ****  ****    0 ROOT 
@<TRIPOS>NORMAL
@<TRIPOS>FF_PBC
FORCE_FIELD_SETUP_FEATURE Force Field Setup information
v1.0  0 0.000000 0.000000 0.000000 0.000000 0.000000 0.000000 NONE 0 0 0 0 1 0 0 0 0 0 0 0 0
