#	Name:			PISM00044
#	Creating user name:	baoopengkun
#	Creation time:		Tue Dec 11 21:59:17 2018

#	Modifying user name:	baoopengkun
#	Modification time:	Tue Dec 11 22:00:52 2018

@<TRIPOS>MOLECULE
PISM00044
   35    37     1     1     0
SMALL
GAST_HUCK


@<TRIPOS>ATOM
      1 C1          6.2756  -11.3074  -15.1858 C.3       1 <1>        -0.0603 
      2 C2          6.7708   -9.8964  -15.5696 C.3       1 <1>        -0.0603 
      3 C3          7.7898  -11.0310  -15.3213 C.3       1 <1>        -0.0499 
      4 C4          8.5203  -11.5417  -16.5919 C.3       1 <1>         0.0627 
      5 O5          7.5987  -11.6957  -17.6858 O.3       1 <1>        -0.4445 
      6 C6          9.1610  -12.9220  -16.3497 C.ar      1 <1>         0.0013 
      7 C7          8.7042  -13.8017  -15.3623 C.ar      1 <1>         0.0397 
      8 N8          9.3383  -14.9729  -15.1506 N.ar      1 <1>        -0.2404 
      9 C9         10.3969  -15.3352  -15.9022 C.ar      1 <1>         0.1093 
     10 N10        10.8387  -14.5284  -16.8874 N.ar      1 <1>        -0.2404 
     11 C11        10.2401  -13.3455  -17.1327 C.ar      1 <1>         0.0397 
     12 C12         9.5946  -10.4813  -16.8927 C.ar      1 <1>        -0.0519 
     13 C13         9.4189   -9.5389  -17.9122 C.ar      1 <1>        -0.0519 
     14 C14        10.4177   -8.6039  -18.2023 C.ar      1 <1>        -0.0042 
     15 C15        11.6052   -8.5866  -17.4589 C.ar      1 <1>         0.1230 
     16 C16        11.7668   -9.5088  -16.4220 C.ar      1 <1>        -0.0042 
     17 C17        10.7696  -10.4443  -16.1338 C.ar      1 <1>        -0.0519 
     18 O18        12.6413   -7.6763  -17.7148 O.3       1 <1>        -0.3000 
     19 C19        12.5608   -6.6982  -18.7648 C.3       1 <1>         0.0673 
     20 H1          5.7898  -11.9024  -15.9741 H         1 <1>         0.0256 
     21 H2          5.8925  -11.4362  -14.1615 H         1 <1>         0.0256 
     22 H3          6.6653   -9.1253  -14.7904 H         1 <1>         0.0256 
     23 H4          6.5619   -9.5867  -16.6050 H         1 <1>         0.0256 
     24 H5          8.3555  -10.9216  -14.3820 H         1 <1>         0.0174 
     25 H6          8.0140  -12.0114  -18.4812 H         1 <1>         0.1876 
     26 H7          7.8385  -13.5647  -14.7559 H         1 <1>         0.1099 
     27 H8         10.8945  -16.2799  -15.7141 H         1 <1>         0.1280 
     28 H9         10.6079  -12.7304  -17.9465 H         1 <1>         0.1099 
     29 H10         8.4989   -9.5229  -18.4874 H         1 <1>         0.0782 
     30 H11        10.2448   -7.9024  -19.0091 H         1 <1>         0.0635 
     31 H12        12.6803   -9.4930  -15.8368 H         1 <1>         0.0635 
     32 H13        10.9138  -11.1414  -15.3141 H         1 <1>         0.0782 
     33 H14        13.4955   -6.1182  -18.7547 H         1 <1>         0.0594 
     34 H15        11.7222   -6.0050  -18.5971 H         1 <1>         0.0594 
     35 H16        12.4643   -7.1814  -19.7493 H         1 <1>         0.0594 
@<TRIPOS>BOND
     1    2    1 1    
     2    2    3 1    
     3    1    3 1    
     4    3    4 1    
     5    4    5 1    
     6    4    6 1    
     7    6    7 ar   
     8    7    8 ar   
     9    8    9 ar   
    10    9   10 ar   
    11   10   11 ar   
    12    6   11 ar   
    13    4   12 1    
    14   12   13 ar   
    15   13   14 ar   
    16   14   15 ar   
    17   15   16 ar   
    18   16   17 ar   
    19   12   17 ar   
    20   15   18 1    
    21   18   19 1    
    22    1   20 1    
    23    1   21 1    
    24    2   22 1    
    25    2   23 1    
    26    3   24 1    
    27    5   25 1    
    28    7   26 1    
    29    9   27 1    
    30   11   28 1    
    31   13   29 1    
    32   14   30 1    
    33   16   31 1    
    34   17   32 1    
    35   19   33 1    
    36   19   34 1    
    37   19   35 1    
@<TRIPOS>SUBSTRUCTURE
     1 ****        2 TEMP              0 ****  ****    0 ROOT 
@<TRIPOS>NORMAL
@<TRIPOS>FF_PBC
FORCE_FIELD_SETUP_FEATURE Force Field Setup information
v1.0  0 0.000000 0.000000 0.000000 0.000000 0.000000 0.000000 NONE 0 0 0 0 1 0 0 0 0 0 0 0 0
