#	Name:			PISM00941
#	Creating user name:	baoopengkun
#	Creation time:		Wed Dec 12 22:41:34 2018

#	Modifying user name:	baoopengkun
#	Modification time:	Wed Dec 12 23:13:37 2018

@<TRIPOS>MOLECULE
PISM00941
   17    17     1     2     0
SMALL
GAST_HUCK


@<TRIPOS>ATOM
      1 C1          4.4015   -4.8167    5.1812 C.3       1 <1>        -0.0421 
      2 C2          3.4036   -5.7733    5.7756 C.2       1 <1>         0.0191 
      3 C3          3.5748   -6.6717    6.7439 C.2       1 <1>         0.0100 
      4 C4          2.3016   -7.4380    7.0275 C.3       1 <1>         0.2205 
      5 O5          1.3385   -6.8677    6.1200 O.3       1 <1>        -0.2380 
      6 C6          1.9971   -5.9449    5.4261 C.2       1 <1>         0.2319 
      7 C7          4.8298   -6.9701    7.5247 C.3       1 <1>        -0.0228 
      8 H8          1.9534   -7.2809    8.0631 H         1 <1>         0.1167 
      9 O9          1.4526   -5.2832    4.5591 O.2       1 <1>        -0.3822 
     10 O10         2.4302   -8.8291    6.6978 O.3       1 <1>        -0.3494 
     11 H1          5.2783   -5.3702    4.8137 H         1 <1>         0.0303 
     12 H2          4.7222   -4.0918    5.9439 H         1 <1>         0.0303 
     13 H3          3.9493   -4.2707    4.3397 H         1 <1>         0.0303 
     14 H4          5.6226   -6.2428    7.2961 H         1 <1>         0.0429 
     15 H5          5.1987   -7.9752    7.2731 H         1 <1>         0.0429 
     16 H6          4.6176   -6.9246    8.6033 H         1 <1>         0.0429 
     17 H7          3.0462   -9.2899    7.2565 H         1 <1>         0.2166 
@<TRIPOS>BOND
     1    2    1 1    
     2    2    3 2    
     3    3    4 1    
     4    4    5 1    
     5    5    6 1    
     6    2    6 1    
     7    3    7 1    
     8    4    8 1    
     9    6    9 2    
    10    4   10 1    
    11    1   11 1    
    12    1   12 1    
    13    1   13 1    
    14    7   14 1    
    15    7   15 1    
    16    7   16 1    
    17   10   17 1    
@<TRIPOS>SUBSTRUCTURE
     1 ****        2 TEMP              0 ****  ****    0 ROOT 
@<TRIPOS>NORMAL
@<TRIPOS>FF_PBC
FORCE_FIELD_SETUP_FEATURE Force Field Setup information
v1.0  0 0.000000 0.000000 0.000000 0.000000 0.000000 0.000000 NONE 0 0 0 0 1 0 0 0 0 0 0 0 0
@<TRIPOS>RENDERING_ATTRS
ANTIALIASED_LINES 
*
