#	Name:			PISM00514
#	Creating user name:	malab
#	Creation time:		Thu Apr 04 12:00:15 2019

#	Modifying user name:	malab
#	Modification time:	Thu Apr 04 12:03:28 2019

@<TRIPOS>MOLECULE
PISM00514
  108   116     1     1     0
SMALL
GAST_HUCK


@<TRIPOS>ATOM
      1 C1         16.9689    3.1345   -6.3811 C.3       1 <1>         0.0689 
      2 C2         18.1874    2.3298   -6.8973 C.3       1 <1>        -0.0244 
      3 C3         18.7402    1.4529   -5.7525 C.3       1 <1>        -0.0166 
      4 C4         19.0537    2.2943   -4.4555 C.3       1 <1>         0.1059 
      5 C5         18.6137    3.7748   -4.4462 C.3       1 <1>         0.0283 
      6 C6         17.1496    3.6292   -4.9124 C.3       1 <1>         0.0933 
      7 C7         20.5879    2.4491   -4.1958 C.3       1 <1>         0.0032 
      8 C8         20.9016    3.9687   -4.0249 C.3       1 <1>         0.0104 
      9 C9         19.8153    4.6235   -4.9455 C.3       1 <1>         0.0623 
     10 C10        21.2969    1.5543   -3.1539 C.3       1 <1>        -0.0440 
     11 C11        22.4015    4.1922   -4.3532 C.3       1 <1>        -0.0278 
     12 C12        23.0635    3.4607   -3.1542 C.3       1 <1>        -0.0055 
     13 C13        22.8141    1.9213   -3.1713 C.3       1 <1>        -0.0379 
     14 C14        22.2321    4.0445   -2.0514 C.2       1 <1>        -0.0697 
     15 C15        20.8598    4.4264   -2.5267 C.3       1 <1>        -0.0093 
     16 C16        22.6594    4.2076   -0.7948 C.2       1 <1>        -0.1287 
     17 H2         18.9739    2.9894   -7.2843 H         1 <1>         0.0289 
     18 O18        18.0486    1.8670   -3.5244 O.3       1 <1>        -0.2699 
     19 C19        16.2666    4.8757   -4.6185 C.3       1 <1>        -0.0493 
     20 C20        16.9100    2.4930   -3.9153 C.2       1 <1>         0.2650 
     21 O21        15.8167    2.2210   -3.4486 O.2       1 <1>        -0.3119 
     22 O22        15.8366    2.2493   -6.4667 O.3       1 <1>        -0.3924 
     23 C23        19.6836    6.1152   -4.7489 C.2       1 <1>         0.1801 
     24 O24        18.7752    6.5457   -4.0596 O.2       1 <1>        -0.3968 
     25 N25        20.5792    6.9384   -5.3374 N.am      1 <1>        -0.2845 
     26 C26        20.5123    8.3785   -5.0918 C.3       1 <1>         0.0543 
     27 C27        21.0679    8.6933   -3.6826 C.3       1 <1>         0.0678 
     28 O28        21.0892   10.1246   -3.5092 O.3       1 <1>        -0.3755 
     29 C29        21.5975   10.5341   -2.2228 C.3       1 <1>         0.0711 
     30 C30        21.5646   12.0770   -2.1494 C.3       1 <1>         0.0711 
     31 O31        22.0785   12.4835   -0.8643 O.3       1 <1>        -0.3755 
     32 C32        22.0843   13.9125   -0.6752 C.3       1 <1>         0.0678 
     33 C33        22.6450   14.2142    0.7370 C.3       1 <1>         0.0538 
     34 N34        22.6566   15.6437    1.0499 N.am      1 <1>        -0.2832 
     35 C35        22.9696   16.0433    2.3038 C.2       1 <1>         0.2099 
     36 O36        23.2700   15.2252    3.1570 O.2       1 <1>        -0.3824 
     37 C37        22.9719   17.5057    2.7054 C.ar      1 <1>         0.0612 
     38 C38        23.7981   17.9180    3.7577 C.ar      1 <1>        -0.0143 
     39 C39        23.8575   19.2596    4.1539 C.ar      1 <1>         0.0829 
     40 C40        23.0499   20.1986    3.5006 C.ar      1 <1>         0.0274 
     41 C41        22.2217   19.7969    2.4488 C.ar      1 <1>        -0.0343 
     42 C42        22.1679   18.4551    2.0638 C.ar      1 <1>        -0.0309 
     43 C43        24.7935   19.6674    5.2737 C.2       1 <1>         0.2660 
     44 O44        25.4111   18.8095    5.8845 O.2       1 <1>        -0.3548 
     45 O45        24.9535   20.9516    5.5987 O.3       1 <1>        -0.2929 
     46 C46        23.0385   21.6544    3.9106 C.2       1 <1>         0.0270 
     47 C47        23.5868   22.6007    3.1384 C.2       1 <1>         0.0406 
     48 C48        24.2476   22.2770    1.8521 C.2       1 <1>        -0.0489 
     49 C49        24.7634   23.2410    1.0820 C.2       1 <1>        -0.0361 
     50 C50        24.6849   24.6437    1.5109 C.2       1 <1>         0.0685 
     51 C51        24.0615   24.9738    2.8003 C.2       1 <1>        -0.0187 
     52 C52        23.5421   24.0165    3.5763 C.2       1 <1>         0.1284 
     53 O53        22.9865   24.3641    4.7447 O.3       1 <1>        -0.2387 
     54 C54        22.4200   23.4037    5.5835 C.ar      1 <1>         0.1461 
     55 C55        22.3980   22.0549    5.2196 C.ar      1 <1>         0.0433 
     56 C56        21.7924   21.1184    6.0655 C.ar      1 <1>        -0.0502 
     57 C57        21.2399   21.5236    7.2842 C.ar      1 <1>        -0.0281 
     58 C58        21.2783   22.8721    7.6599 C.ar      1 <1>         0.0947 
     59 C59        21.8666   23.8043    6.8019 C.ar      1 <1>         0.0163 
     60 O60        25.1369   25.5261    0.8005 O.2       1 <1>        -0.4424 
     61 O61        20.7399   23.3075    8.8743 O.3       1 <1>        -0.3271 
     62 H1         16.8161    3.9885   -7.0648 H         1 <1>         0.0584 
     63 H3         17.8739    1.6967   -7.7450 H         1 <1>         0.0289 
     64 H17        17.9660    0.6956   -5.5391 H         1 <1>         0.0297 
     65 H4         18.4978    4.1714   -3.4201 H         1 <1>         0.0351 
     66 H5         21.0748    2.1932   -5.1496 H         1 <1>         0.0341 
     67 H6         20.0637    4.4394   -5.9963 H         1 <1>         0.0548 
     68 H7         21.1575    0.4909   -3.4104 H         1 <1>         0.0271 
     69 H8         20.8611    1.7092   -2.1556 H         1 <1>         0.0271 
     70 H9         22.6500    5.2661   -4.3231 H         1 <1>         0.0303 
     71 H10        22.7300    3.7942   -5.3260 H         1 <1>         0.0303 
     72 H11        23.3037    1.4594   -2.2980 H         1 <1>         0.0294 
     73 H12        23.2865    1.5110   -4.0790 H         1 <1>         0.0294 
     74 H13        20.7693    5.5196   -2.4393 H         1 <1>         0.0467 
     75 H14        20.1034    3.9498   -1.8859 H         1 <1>         0.0467 
     76 H15        22.0040    4.6408   -0.0401 H         1 <1>         0.0075 
     77 H16        23.6664    3.9100   -0.5049 H         1 <1>         0.0075 
     78 H47        19.5971    0.8697   -6.1243 H         1 <1>         0.0297 
     79 H18        16.5859    5.7179   -5.2504 H         1 <1>         0.0222 
     80 H19        16.3406    5.1823   -3.5639 H         1 <1>         0.0222 
     81 H20        15.2098    4.6590   -4.8316 H         1 <1>         0.0222 
     82 H21        15.0127    2.6420   -6.1963 H         1 <1>         0.2096 
     83 H22        21.3152    6.5865   -5.9184 H         1 <1>         0.1851 
     84 H23        19.4753    8.7457   -5.1683 H         1 <1>         0.0543 
     85 H24        21.1139    8.9292   -5.8345 H         1 <1>         0.0543 
     86 H25        22.0846    8.2749   -3.6038 H         1 <1>         0.0580 
     87 H26        20.4270    8.2165   -2.9233 H         1 <1>         0.0580 
     88 H27        22.6376   10.1971   -2.0819 H         1 <1>         0.0583 
     89 H28        20.9785   10.1307   -1.4045 H         1 <1>         0.0583 
     90 H29        20.5232   12.4120   -2.2859 H         1 <1>         0.0583 
     91 H30        22.1799   12.4828   -2.9691 H         1 <1>         0.0583 
     92 H31        21.0617   14.3184   -0.7460 H         1 <1>         0.0580 
     93 H32        22.7205   14.4027   -1.4304 H         1 <1>         0.0580 
     94 H33        23.6701   13.8138    0.8028 H         1 <1>         0.0542 
     95 H34        22.0204   13.6757    1.4694 H         1 <1>         0.0542 
     96 H35        22.4752   16.2970    0.3166 H         1 <1>         0.1846 
     97 H36        24.4079   17.1817    4.2721 H         1 <1>         0.0741 
     98 H37        21.6115   20.5316    1.9314 H         1 <1>         0.0706 
     99 H38        21.4856   18.1662    1.2724 H         1 <1>         0.0716 
    100 H39        25.5738   21.0630    6.3115 H         1 <1>         0.2523 
    101 H40        24.3360   21.2499    1.4981 H         1 <1>         0.0663 
    102 H41        25.2489   23.0117    0.1327 H         1 <1>         0.0526 
    103 H42        24.0271   26.0155    3.1196 H         1 <1>         0.0197 
    104 H43        21.7433   20.0709    5.7877 H         1 <1>         0.0651 
    105 H44        20.7825   20.7833    7.9330 H         1 <1>         0.0526 
    106 H45        21.8937   24.8508    7.0847 H         1 <1>         0.0505 
    107 H46        20.3628   22.6193    9.4112 H         1 <1>         0.2529 
    108 H48        24.1372    3.6985   -3.0675 H         1 <1>         0.0495 
@<TRIPOS>BOND
     1    2    1 1    
     2    4    3 1    
     3    2    3 1    
     4    5    4 1    
     5    6    5 1    
     6    1    6 1    
     7    4    7 1    
     8    8    7 1    
     9    9    8 1    
    10    5    9 1    
    11    7   10 1    
    12    8   11 1    
    13   11   12 1    
    14   12   13 1    
    15   10   13 1    
    16   14   12 1    
    17    8   15 1    
    18   15   14 1    
    19   14   16 2    
    20    2   17 1    
    21   18    4 1    
    22    6   19 1    
    23    6   20 1    
    24   20   21 2    
    25   20   18 1    
    26    1   22 1    
    27    9   23 1    
    28   23   24 2    
    29   23   25 am   
    30   25   26 1    
    31   26   27 1    
    32   27   28 1    
    33   28   29 1    
    34   29   30 1    
    35   30   31 1    
    36   31   32 1    
    37   32   33 1    
    38   33   34 1    
    39   34   35 am   
    40   35   36 2    
    41   35   37 1    
    42   37   38 ar   
    43   38   39 ar   
    44   39   40 ar   
    45   41   40 ar   
    46   42   41 ar   
    47   37   42 ar   
    48   39   43 1    
    49   43   44 2    
    50   43   45 1    
    51   40   46 1    
    52   46   47 2    
    53   47   48 1    
    54   48   49 2    
    55   49   50 1    
    56   51   50 1    
    57   52   51 2    
    58   47   52 1    
    59   52   53 1    
    60   54   53 1    
    61   55   54 ar   
    62   46   55 1    
    63   55   56 ar   
    64   56   57 ar   
    65   57   58 ar   
    66   59   58 ar   
    67   54   59 ar   
    68   50   60 2    
    69   58   61 1    
    70    1   62 1    
    71    2   63 1    
    72    3   64 1    
    73    5   65 1    
    74    7   66 1    
    75    9   67 1    
    76   10   68 1    
    77   10   69 1    
    78   11   70 1    
    79   11   71 1    
    80   13   72 1    
    81   13   73 1    
    82   15   74 1    
    83   15   75 1    
    84   16   76 1    
    85   16   77 1    
    86    3   78 1    
    87   19   79 1    
    88   19   80 1    
    89   19   81 1    
    90   22   82 1    
    91   25   83 1    
    92   26   84 1    
    93   26   85 1    
    94   27   86 1    
    95   27   87 1    
    96   29   88 1    
    97   29   89 1    
    98   30   90 1    
    99   30   91 1    
   100   32   92 1    
   101   32   93 1    
   102   33   94 1    
   103   33   95 1    
   104   34   96 1    
   105   38   97 1    
   106   41   98 1    
   107   42   99 1    
   108   45  100 1    
   109   48  101 1    
   110   49  102 1    
   111   51  103 1    
   112   56  104 1    
   113   57  105 1    
   114   59  106 1    
   115   61  107 1    
   116   12  108 1    
@<TRIPOS>SUBSTRUCTURE
     1 ****        2 TEMP              0 ****  ****    0 ROOT 
@<TRIPOS>NORMAL
@<TRIPOS>FF_PBC
FORCE_FIELD_SETUP_FEATURE Force Field Setup information
v1.0  0 0.000000 0.000000 0.000000 0.000000 0.000000 0.000000 NONE 0 0 0 0 1 0 0 0 0 0 0 0 0
