#	Name:			PISM01168
#	Creating user name:	malab
#	Creation time:		Thu Apr 11 00:00:35 2019

#	Modifying user name:	malab
#	Modification time:	Thu Apr 11 00:01:51 2019

@<TRIPOS>MOLECULE
PISM01168
   52    52     1     2     0
SMALL
GAST_HUCK


@<TRIPOS>ATOM
      1 C1          7.7542   30.9944  -12.8125 C.3       1 <1>        -0.0625 
      2 C2          8.6268   30.3277  -11.7089 C.3       1 <1>        -0.0425 
      3 C3          8.2515   28.8216  -11.6123 C.3       1 <1>        -0.0625 
      4 C4         10.1372   30.5669  -12.0260 C.3       1 <1>        -0.0101 
      5 C5         11.1573   30.2038  -10.9044 C.3       1 <1>         0.1311 
      6 C6         10.7910   30.9162   -9.6192 C.2       1 <1>         0.2017 
      7 O7         11.2246   32.0435   -9.4395 O.2       1 <1>        -0.3945 
      8 N8         10.0072   30.2863   -8.7120 N.am      1 <1>        -0.2850 
      9 C9          9.6773   30.9309   -7.4440 C.3       1 <1>         0.0321 
     10 C10        10.8590   30.7351   -6.4593 C.3       1 <1>        -0.0199 
     11 C11        10.5375   31.3357   -5.0640 C.3       1 <1>         0.0009 
     12 C12        11.7232   31.1617   -4.0767 C.3       1 <1>        -0.2956 
     13 N13        11.4185   31.6938   -2.7493 N.am      1 <1>         0.0792 
     14 C14        12.3710   31.6762   -1.7840 C.2       1 <1>         0.1003 
     15 N15        13.5330   31.2126   -2.0278 N.2       1 <1>        -0.3914 
     16 N16        12.0400   32.1656   -0.5625 N.am      1 <1>        -0.3023 
     17 N17        11.3681   28.7691  -10.7137 N.am      1 <1>        -0.2633 
     18 C18        12.0937   28.3189   -9.6638 C.2       1 <1>         0.2128 
     19 C19        12.2806   26.8317   -9.5340 C.3       1 <1>         0.1952 
     20 C20        12.4423   26.2857   -8.0503 C.3       1 <1>         0.2047 
     21 O21        11.2716   26.1701   -8.8186 O.3       1 <1>        -0.3210 
     22 C22        13.0995   24.9499   -7.8340 C.2       1 <1>         0.2659 
     23 O23        13.5661   24.3035   -8.7599 O.2       1 <1>        -0.3674 
     24 O24        13.1247   24.5332   -6.5643 O.3       1 <1>        -0.2906 
     25 O25        12.5955   29.0500   -8.8252 O.2       1 <1>        -0.3938 
     26 H1          6.6822   30.8583  -12.6000 H         1 <1>         0.0000 
     27 H2          7.9742   30.5497  -13.7952 H         1 <1>         0.0000 
     28 H3          7.9508   32.0766  -12.8674 H         1 <1>         0.0000 
     29 H4          8.3694   30.8181  -10.7545 H         1 <1>         0.0000 
     30 H5          8.7467   28.3256  -10.7685 H         1 <1>         0.0000 
     31 H6          8.5290   28.2985  -12.5398 H         1 <1>         0.0000 
     32 H7          7.1666   28.7087  -11.4622 H         1 <1>         0.0000 
     33 H8         10.2666   31.6449  -12.2212 H         1 <1>         0.0000 
     34 H9         10.4077   30.0312  -12.9499 H         1 <1>         0.0000 
     35 H10        12.1398   30.5912  -11.2278 H         1 <1>         0.0000 
     36 H11         9.6797   29.3521   -8.8548 H         1 <1>         0.0000 
     37 H12         8.7677   30.4743   -7.0183 H         1 <1>         0.0000 
     38 H13         9.4696   32.0036   -7.5898 H         1 <1>         0.0000 
     39 H14        11.7599   31.2163   -6.8738 H         1 <1>         0.0000 
     40 H15        11.0604   29.6555   -6.3592 H         1 <1>         0.0000 
     41 H16         9.6485   30.8328   -4.6488 H         1 <1>         0.0000 
     42 H17        10.3129   32.4101   -5.1677 H         1 <1>         0.0000 
     43 H18        12.6052   31.6813   -4.4861 H         1 <1>         0.0000 
     44 H19        11.9614   30.0894   -3.9856 H         1 <1>         0.0000 
     45 H20        10.4986   32.0528   -2.5774 H         1 <1>         0.0000 
     46 H21        14.2558   31.1902   -1.3242 H         1 <1>         0.0000 
     47 H22        12.7077   32.1741    0.1832 H         1 <1>         0.0000 
     48 H23        11.1259   32.5271   -0.3736 H         1 <1>         0.0000 
     49 H24        11.0298   28.1283  -11.4049 H         1 <1>         0.0000 
     50 H25        12.7694   26.2474  -10.3278 H         1 <1>         0.0000 
     51 H26        12.2902   26.9775   -7.2071 H         1 <1>         0.0000 
     52 H27        13.5439   23.6858   -6.4588 H         1 <1>         0.0000 
@<TRIPOS>BOND
     1    2    1 1    
     2    2    3 1    
     3    2    4 1    
     4    4    5 1    
     5    5    6 1    
     6    6    7 2    
     7    6    8 am   
     8    8    9 1    
     9    9   10 1    
    10   10   11 1    
    11   11   12 1    
    12   12   13 1    
    13   13   14 am   
    14   14   15 2    
    15   14   16 am   
    16    5   17 1    
    17   17   18 am   
    18   18   19 1    
    19   19   20 1    
    20   20   21 1    
    21   19   21 1    
    22   20   22 1    
    23   22   23 2    
    24   22   24 1    
    25   18   25 2    
    26    1   26 1    
    27    1   27 1    
    28    1   28 1    
    29    2   29 1    
    30    3   30 1    
    31    3   31 1    
    32    3   32 1    
    33    4   33 1    
    34    4   34 1    
    35    5   35 1    
    36    8   36 1    
    37    9   37 1    
    38    9   38 1    
    39   10   39 1    
    40   10   40 1    
    41   11   41 1    
    42   11   42 1    
    43   12   43 1    
    44   12   44 1    
    45   13   45 1    
    46   15   46 1    
    47   16   47 1    
    48   16   48 1    
    49   17   49 1    
    50   19   50 1    
    51   20   51 1    
    52   24   52 1    
@<TRIPOS>SUBSTRUCTURE
     1 ****        2 TEMP              0 ****  ****    0 ROOT 
@<TRIPOS>NORMAL
@<TRIPOS>FF_PBC
FORCE_FIELD_SETUP_FEATURE Force Field Setup information
v1.0  0 0.000000 0.000000 0.000000 0.000000 0.000000 0.000000 NONE 0 0 0 0 0 0 0 0 0 0 0 0 0
@<TRIPOS>RENDERING_ATTRS
ANTIALIASED_LINES 
*
