#	Name:			PISM00978
#	Creating user name:	baoopengkun
#	Creation time:		Fri Jan 11 17:56:21 2019

#	Modifying user name:	baoopengkun
#	Modification time:	Fri Jan 11 17:59:16 2019

@<TRIPOS>MOLECULE
PISM00978
   31    32     1     1     0
SMALL
GAST_HUCK


@<TRIPOS>ATOM
      1 O1         -0.0302   -0.6823   -0.8375 O.3       1 <1>        -0.3189 
      2 C2         -4.4293    3.0483    1.1764 C.ar      1 <1>        -0.0679 
      3 C3         -3.7027    3.5978    2.2345 C.ar      1 <1>        -0.0680 
      4 C4         -2.3739    3.2172    2.4407 C.ar      1 <1>        -0.0623 
      5 C5         -1.7388    2.3202    1.5695 C.ar      1 <1>        -0.0189 
      6 C6         -2.4892    1.7353    0.5401 C.ar      1 <1>        -0.0300 
      7 C7         -3.8236    2.1103    0.3376 C.ar      1 <1>        -0.0626 
      8 C8         -0.3820    1.9883    1.7062 C.ar      1 <1>         0.0617 
      9 C9          0.1508    0.9191    0.9753 C.ar      1 <1>         0.1483 
     10 C10        -0.5983    0.3287   -0.0502 C.ar      1 <1>         0.1343 
     11 C11        -1.9017    0.7734   -0.2888 C.ar      1 <1>        -0.0248 
     12 O12         1.4423    0.4633    1.2646 O.3       1 <1>        -0.3128 
     13 C13         1.5739   -0.8908    1.7330 C.3       1 <1>         0.0611 
     14 C14         0.5306    2.7810    2.6209 C.2       1 <1>         0.1176 
     15 O15         0.4444    3.9982    2.6414 O.2       1 <1>        -0.3902 
     16 C16         1.5683    2.1318    3.4969 C.3       1 <1>         0.0072 
     17 C17        -0.7799   -1.8903   -1.0596 C.3       1 <1>         0.0585 
     18 H1         -5.4602    3.3462    1.0083 H         1 <1>         0.0578 
     19 H2         -4.1720    4.3190    2.8971 H         1 <1>         0.0586 
     20 H3         -1.8549    3.6313    3.2979 H         1 <1>         0.0581 
     21 H4         -4.4048    1.6767   -0.4712 H         1 <1>         0.0591 
     22 H5         -2.4624    0.3741   -1.1246 H         1 <1>         0.0536 
     23 H6          0.9392   -1.0677    2.6147 H         1 <1>         0.0581 
     24 H7          2.6248   -1.0415    2.0209 H         1 <1>         0.0581 
     25 H8          1.3246   -1.6283    0.9581 H         1 <1>         0.0581 
     26 H9          1.2127    1.1548    3.8531 H         1 <1>         0.0444 
     27 H10         1.7683    2.7665    4.3735 H         1 <1>         0.0444 
     28 H11         2.5066    2.0044    2.9381 H         1 <1>         0.0444 
     29 H12        -1.6551   -1.7312   -1.7054 H         1 <1>         0.0576 
     30 H13        -1.1056   -2.3283   -0.1034 H         1 <1>         0.0576 
     31 H14        -0.1147   -2.6065   -1.5643 H         1 <1>         0.0576 
@<TRIPOS>BOND
     1   10    1 1    
     2    2    3 ar   
     3    3    4 ar   
     4    4    5 ar   
     5    5    6 ar   
     6    6    7 ar   
     7    2    7 ar   
     8    5    8 ar   
     9    8    9 ar   
    10    9   10 ar   
    11   10   11 ar   
    12    6   11 ar   
    13    9   12 1    
    14   12   13 1    
    15    8   14 1    
    16   14   15 2    
    17   14   16 1    
    18    1   17 1    
    19    2   18 1    
    20    3   19 1    
    21    4   20 1    
    22    7   21 1    
    23   11   22 1    
    24   13   23 1    
    25   13   24 1    
    26   13   25 1    
    27   16   26 1    
    28   16   27 1    
    29   16   28 1    
    30   17   29 1    
    31   17   30 1    
    32   17   31 1    
@<TRIPOS>SUBSTRUCTURE
     1 ****        2 TEMP              0 ****  ****    0 ROOT 
@<TRIPOS>NORMAL
@<TRIPOS>FF_PBC
FORCE_FIELD_SETUP_FEATURE Force Field Setup information
v1.0  0 0.000000 0.000000 0.000000 0.000000 0.000000 0.000000 NONE 0 0 0 0 1 0 0 0 0 0 0 0 0
