#	Name:			PISM01182.2
#	Creating user name:	malab
#	Creation time:		Thu Apr 11 00:22:40 2019

#	Modifying user name:	malab
#	Modification time:	Thu Apr 11 00:27:47 2019

@<TRIPOS>MOLECULE
PISM01182.2
  126   129     1     1     0
SMALL
GAST_HUCK


@<TRIPOS>ATOM
      1 C1         33.9045   15.8713  -19.9740 C.3       1 <1>        -0.0507 
      2 C2         33.7223   14.7199  -18.9377 C.3       1 <1>        -0.0467 
      3 C3         32.9032   15.1620  -17.6920 C.3       1 <1>        -0.0627 
      4 C4         35.1130   14.1880  -18.4879 C.3       1 <1>        -0.0627 
      5 H1         34.4549   16.7039  -19.5068 H         1 <1>         0.0268 
      6 H2         34.5137   15.4887  -20.8091 H         1 <1>         0.0268 
      7 C7         32.5665   16.4065  -20.5581 C.3       1 <1>        -0.0528 
      8 C8         32.8077   17.4150  -21.7169 C.3       1 <1>        -0.0530 
      9 C9         31.4666   17.9686  -22.2732 C.3       1 <1>        -0.0531 
     10 C10        31.6907   18.9686  -23.4415 C.3       1 <1>        -0.0531 
     11 C11        30.3385   19.5312  -23.9607 C.3       1 <1>        -0.0531 
     12 C12        30.5344   20.5553  -25.1131 C.3       1 <1>        -0.0531 
     13 C13        29.1693   21.1262  -25.5902 C.3       1 <1>        -0.0529 
     14 C14        29.3473   22.2041  -26.6944 C.3       1 <1>        -0.0505 
     15 C15        27.9765   22.7569  -27.1775 C.3       1 <1>        -0.0396 
     16 C16        28.1628   23.8936  -28.2182 C.3       1 <1>        -0.0148 
     17 C17        26.8430   24.3257  -28.8188 C.2       1 <1>        -0.0596 
     18 C18        26.3472   25.5686  -28.7279 C.2       1 <1>        -0.0030 
     19 C19        25.0801   25.9890  -29.3683 C.2       1 <1>         0.1764 
     20 O20        24.4282   25.1375  -29.9526 O.2       1 <1>        -0.4012 
     21 N21        24.6778   27.2839  -29.3131 N.am      1 <1>        -0.2811 
     22 C22        23.4944   27.7223  -30.0569 C.3       1 <1>         0.1197 
     23 C23        23.8675   27.8541  -31.5537 C.3       1 <1>         0.1108 
     24 O24        22.7077   28.0398  -32.3885 O.3       1 <1>        -0.3867 
     25 C25        22.8869   29.0771  -29.5887 C.3       1 <1>         0.1876 
     26 O26        22.8915   29.1634  -28.1441 O.3       1 <1>        -0.3180 
     27 C27        22.0286   30.1844  -27.5801 C.3       1 <1>         0.1879 
     28 C28        20.4931   29.8974  -27.6648 C.3       1 <1>         0.1211 
     29 N29        19.6614   31.0023  -28.1631 N.am      1 <1>        -0.2766 
     30 C30        19.6714   32.2730  -27.6757 C.2       1 <1>         0.1733 
     31 O31        18.9313   33.1085  -28.1732 O.2       1 <1>        -0.3974 
     32 C32        20.5526   32.7803  -26.5574 C.3       1 <1>         0.0257 
     33 C33        19.9160   29.2685  -26.3691 C.3       1 <1>         0.1111 
     34 O34        18.7474   28.4728  -26.6469 O.3       1 <1>        -0.3867 
     35 C35        21.0025   28.3695  -25.7341 C.3       1 <1>         0.1116 
     36 O36        20.4053   27.7035  -24.6068 O.3       1 <1>        -0.3865 
     37 C37        22.1945   29.2759  -25.3168 C.3       1 <1>         0.1130 
     38 O38        22.3965   30.4007  -26.2006 O.3       1 <1>        -0.3407 
     39 C39        23.5153   28.5009  -25.0481 C.3       1 <1>         0.0730 
     40 O40        24.1743   28.0960  -26.2544 O.3       1 <1>        -0.3924 
     41 C41        24.9154   28.9859  -31.7513 C.3       1 <1>         0.1095 
     42 O42        24.8705   29.4157  -33.1236 O.3       1 <1>        -0.3866 
     43 C43        25.1641   31.5205  -31.3556 C.3       1 <1>         0.0047 
     44 C44        24.7663   30.1543  -30.7180 C.3       1 <1>         0.0925 
     45 O45        23.4014   30.2484  -30.2645 O.3       1 <1>        -0.3429 
     46 C46        25.8241   32.5829  -30.4280 C.3       1 <1>         0.0864 
     47 C47        25.1012   32.8349  -29.0751 C.3       1 <1>         0.1161 
     48 O48        25.3484   31.7784  -28.1379 O.3       1 <1>        -0.3389 
     49 C49        24.9968   32.2463  -26.8255 C.3       1 <1>         0.1969 
     50 N50        25.5837   31.4882  -25.7132 N.pl3     1 <1>        -0.1665 
     51 C51        26.5068   30.5882  -25.9525 C.2       1 <1>         0.0550 
     52 C52        27.0764   29.8752  -24.9741 C.2       1 <1>         0.0141 
     53 C53        26.6419   30.1295  -23.5997 C.2       1 <1>         0.1916 
     54 O54        27.1383   29.5007  -22.6772 O.2       1 <1>        -0.4051 
     55 N55        25.6902   31.0663  -23.4334 N.am      1 <1>        -0.1858 
     56 C56        25.1681   31.7341  -24.4896 C.2       1 <1>         0.3248 
     57 O57        24.3039   32.5718  -24.2846 O.2       1 <1>        -0.3766 
     58 O58        25.8719   33.7888  -31.2189 O.3       1 <1>        -0.3891 
     59 C59        25.6943   34.0434  -28.3079 C.3       1 <1>         0.1145 
     60 C60        25.4384   33.7284  -26.8135 C.3       1 <1>         0.1357 
     61 O61        24.4137   34.5894  -26.2858 O.3       1 <1>        -0.3839 
     62 O62        25.0660   35.2626  -28.7370 O.3       1 <1>        -0.3864 
     63 H3         33.1860   13.8866  -19.4252 H         1 <1>         0.0295 
     64 H4         33.3628   16.0467  -17.2254 H         1 <1>         0.0232 
     65 H5         32.8725   14.3515  -16.9469 H         1 <1>         0.0232 
     66 H6         31.8637   15.4011  -17.9603 H         1 <1>         0.0232 
     67 H7         35.6935   13.8359  -19.3550 H         1 <1>         0.0232 
     68 H8         34.9995   13.3442  -17.7892 H         1 <1>         0.0232 
     69 H9         35.6834   14.9838  -17.9845 H         1 <1>         0.0232 
     70 H10        31.9682   15.5603  -20.9332 H         1 <1>         0.0265 
     71 H11        31.9926   16.9183  -19.7699 H         1 <1>         0.0265 
     72 H12        33.3576   16.9143  -22.5305 H         1 <1>         0.0265 
     73 H13        33.4232   18.2520  -21.3480 H         1 <1>         0.0265 
     74 H14        30.9236   18.4778  -21.4603 H         1 <1>         0.0265 
     75 H15        30.8468   17.1294  -22.6290 H         1 <1>         0.0265 
     76 H16        32.2160   18.4595  -24.2661 H         1 <1>         0.0265 
     77 H17        32.3217   19.8018  -23.0915 H         1 <1>         0.0265 
     78 H18        29.8131   20.0263  -23.1275 H         1 <1>         0.0265 
     79 H19        29.7103   18.6989  -24.3188 H         1 <1>         0.0265 
     80 H20        31.0434   20.0645  -25.9594 H         1 <1>         0.0265 
     81 H21        31.1718   21.3826  -24.7597 H         1 <1>         0.0265 
     82 H22        28.6462   21.5804  -24.7327 H         1 <1>         0.0265 
     83 H23        28.5471   20.3031  -25.9787 H         1 <1>         0.0265 
     84 H24        29.8839   21.7639  -27.5514 H         1 <1>         0.0267 
     85 H25        29.9539   23.0341  -26.2962 H         1 <1>         0.0267 
     86 H26        27.4050   23.1518  -26.3213 H         1 <1>         0.0296 
     87 H27        27.3968   21.9348  -27.6291 H         1 <1>         0.0296 
     88 H28        28.7941   23.5294  -29.0446 H         1 <1>         0.0488 
     89 H29        28.6881   24.7382  -27.7433 H         1 <1>         0.0488 
     90 H30        26.2858   23.5637  -29.3651 H         1 <1>         0.0846 
     91 H31        26.9042   26.3183  -28.1662 H         1 <1>         0.0472 
     92 H32        25.2154   27.9566  -28.8106 H         1 <1>         0.1837 
     93 H33        22.7141   26.9489  -29.9375 H         1 <1>         0.0631 
     94 H34        24.2985   26.9031  -31.9059 H         1 <1>         0.0645 
     95 H35        22.2283   28.8450  -32.2288 H         1 <1>         0.2100 
     96 H36        21.8508   29.0681  -29.9463 H         1 <1>         0.0935 
     97 H37        22.2392   31.1163  -28.1233 H         1 <1>         0.0935 
     98 H38        20.3646   29.0549  -28.3586 H         1 <1>         0.0633 
     99 H39        19.0207   30.7981  -28.9090 H         1 <1>         0.1857 
    100 H40        21.5359   33.0623  -26.9555 H         1 <1>         0.0467 
    101 H41        20.6801   32.0658  -25.7387 H         1 <1>         0.0467 
    102 H42        20.1071   33.6870  -26.1199 H         1 <1>         0.0467 
    103 H43        19.6241   30.0385  -25.6404 H         1 <1>         0.0645 
    104 H44        18.0352   28.9820  -27.0201 H         1 <1>         0.2100 
    105 H45        21.3276   27.6208  -26.4771 H         1 <1>         0.0647 
    106 H46        20.9941   27.0969  -24.1718 H         1 <1>         0.2100 
    107 H47        21.9085   29.7508  -24.3636 H         1 <1>         0.0647 
    108 H48        23.3280   27.5971  -24.4505 H         1 <1>         0.0584 
    109 H49        24.1963   29.1433  -24.4677 H         1 <1>         0.0584 
    110 H50        24.3921   28.8520  -26.7891 H         1 <1>         0.2095 
    111 H51        25.9307   28.5688  -31.6261 H         1 <1>         0.0646 
    112 H52        24.0485   29.8318  -33.3575 H         1 <1>         0.2100 
    113 H53        24.2623   31.9521  -31.8209 H         1 <1>         0.0317 
    114 H54        25.9122   31.3626  -32.1502 H         1 <1>         0.0317 
    115 H55        25.4262   29.9839  -29.8560 H         1 <1>         0.0624 
    116 H56        26.8556   32.2593  -30.1958 H         1 <1>         0.0621 
    117 H57        24.0177   32.9719  -29.2262 H         1 <1>         0.0650 
    118 H58        23.9021   32.2185  -26.7708 H         1 <1>         0.0957 
    119 H59        26.8597   30.3729  -26.9617 H         1 <1>         0.1177 
    120 H60        27.8414   29.1247  -25.1779 H         1 <1>         0.0347 
    121 H61        25.3654   31.2667  -22.5067 H         1 <1>         0.2263 
    122 H62        26.3434   34.5099  -30.8167 H         1 <1>         0.2099 
    123 H63        26.7859   34.0870  -28.4757 H         1 <1>         0.0648 
    124 H64        26.3693   33.8532  -26.2322 H         1 <1>         0.0673 
    125 H65        24.2163   34.3969  -25.3750 H         1 <1>         0.2101 
    126 H66        25.3757   36.0167  -28.2462 H         1 <1>         0.2100 
@<TRIPOS>BOND
     1    7    1 1    
     2    1    2 1    
     3    2    3 1    
     4    2    4 1    
     5    1    5 1    
     6    1    6 1    
     7    7    8 1    
     8    8    9 1    
     9    9   10 1    
    10   10   11 1    
    11   11   12 1    
    12   12   13 1    
    13   13   14 1    
    14   14   15 1    
    15   15   16 1    
    16   16   17 1    
    17   17   18 2    
    18   18   19 1    
    19   19   20 2    
    20   19   21 am   
    21   21   22 1    
    22   22   23 1    
    23   23   24 1    
    24   22   25 1    
    25   25   26 1    
    26   26   27 1    
    27   27   28 1    
    28   28   29 1    
    29   29   30 am   
    30   30   31 2    
    31   30   32 1    
    32   28   33 1    
    33   33   34 1    
    34   33   35 1    
    35   35   36 1    
    36   35   37 1    
    37   37   38 1    
    38   27   38 1    
    39   37   39 1    
    40   39   40 1    
    41   23   41 1    
    42   41   42 1    
    43   41   44 1    
    44   44   43 1    
    45   44   45 1    
    46   25   45 1    
    47   43   46 1    
    48   46   47 1    
    49   47   48 1    
    50   48   49 1    
    51   49   50 1    
    52   50   51 1    
    53   51   52 2    
    54   52   53 1    
    55   53   54 2    
    56   53   55 am   
    57   55   56 am   
    58   56   57 2    
    59   50   56 1    
    60   46   58 1    
    61   47   59 1    
    62   59   60 1    
    63   49   60 1    
    64   60   61 1    
    65   59   62 1    
    66    2   63 1    
    67    3   64 1    
    68    3   65 1    
    69    3   66 1    
    70    4   67 1    
    71    4   68 1    
    72    4   69 1    
    73    7   70 1    
    74    7   71 1    
    75    8   72 1    
    76    8   73 1    
    77    9   74 1    
    78    9   75 1    
    79   10   76 1    
    80   10   77 1    
    81   11   78 1    
    82   11   79 1    
    83   12   80 1    
    84   12   81 1    
    85   13   82 1    
    86   13   83 1    
    87   14   84 1    
    88   14   85 1    
    89   15   86 1    
    90   15   87 1    
    91   16   88 1    
    92   16   89 1    
    93   17   90 1    
    94   18   91 1    
    95   21   92 1    
    96   22   93 1    
    97   23   94 1    
    98   24   95 1    
    99   25   96 1    
   100   27   97 1    
   101   28   98 1    
   102   29   99 1    
   103   32  100 1    
   104   32  101 1    
   105   32  102 1    
   106   33  103 1    
   107   34  104 1    
   108   35  105 1    
   109   36  106 1    
   110   37  107 1    
   111   39  108 1    
   112   39  109 1    
   113   40  110 1    
   114   41  111 1    
   115   42  112 1    
   116   43  113 1    
   117   43  114 1    
   118   44  115 1    
   119   46  116 1    
   120   47  117 1    
   121   49  118 1    
   122   51  119 1    
   123   52  120 1    
   124   55  121 1    
   125   58  122 1    
   126   59  123 1    
   127   60  124 1    
   128   61  125 1    
   129   62  126 1    
@<TRIPOS>SUBSTRUCTURE
     1 ****        7 TEMP              0 ****  ****    0 ROOT 
@<TRIPOS>NORMAL
@<TRIPOS>FF_PBC
FORCE_FIELD_SETUP_FEATURE Force Field Setup information
v1.0  0 0.000000 0.000000 0.000000 0.000000 0.000000 0.000000 NONE 0 0 0 0 0 0 0 0 0 0 0 0 0
