#	Name:			PISM00687
#	Creating user name:	baoopengkun
#	Creation time:		Sat Dec 08 17:25:52 2018

#	Modifying user name:	baoopengkun
#	Modification time:	Sat Dec 08 17:26:05 2018

@<TRIPOS>MOLECULE
PISM00687
   36    38     3     2     0
SMALL
GAST_HUCK


@<TRIPOS>ATOM
      1 C1         20.4674   32.0130   -5.4928 C.3       1 PHENYL      0.0660 
      2 C          19.2634   31.7634   -6.4285 C.ar      1 PHENYL     -0.0577 
      3 C          18.6146   30.5219   -6.4137 C.ar      1 PHENYL     -0.0543 
      4 C          17.5713   30.2464   -7.3022 C.ar      1 PHENYL     -0.0435 
      5 C          17.1429   31.2260   -8.2011 C.ar      1 PHENYL     -0.0438 
      6 C          17.7445   32.4867   -8.1862 C.ar      1 PHENYL     -0.0435 
      7 C          18.7809   32.7591   -7.2883 C.ar      1 PHENYL     -0.0543 
      8 C          21.5050   30.8753   -5.3949 C.ar      2 PHENYL     -0.0577 
      9 C          22.3734   30.8720   -4.2965 C.ar      2 PHENYL     -0.0543 
     10 C          23.3277   29.8633   -4.1374 C.ar      2 PHENYL     -0.0435 
     11 C          23.4273   28.8423   -5.0855 C.ar      2 PHENYL     -0.0438 
     12 C          22.5738   28.8410   -6.1915 C.ar      2 PHENYL     -0.0435 
     13 C          21.6229   29.8540   -6.3473 C.ar      2 PHENYL     -0.0543 
     14 C          21.2835   33.2754   -5.8484 C.ar      3 PHENYL     -0.0436 
     15 C          21.4484   34.3026   -4.9083 C.ar      3 PHENYL     -0.0539 
     16 C          22.2025   35.4410   -5.2067 C.ar      3 PHENYL     -0.0434 
     17 C          22.8112   35.5678   -6.4566 C.ar      3 PHENYL     -0.0433 
     18 C          22.6486   34.5549   -7.4039 C.ar      3 PHENYL     -0.0293 
     19 C          21.8821   33.4237   -7.1085 C.ar      3 PHENYL      0.0503 
     20 O20        19.8812   32.1789   -4.1876 O.3       1 PHENYL     -0.4529 
     21 H21        23.4051   36.4464   -6.6900 H         3 PHENYL      0.0771 
     22 H1         18.9182   29.7574   -5.7058 H         1 PHENYL      0.0760 
     23 H2         17.0935   29.2714   -7.2936 H         1 PHENYL      0.0669 
     24 H3         16.3452   31.0097   -8.9051 H         1 PHENYL      0.0771 
     25 H4         17.4047   33.2567   -8.8723 H         1 PHENYL      0.0669 
     26 H5         19.1989   33.7593   -7.2674 H         1 PHENYL      0.0760 
     27 H6         22.3089   31.6629   -3.5558 H         2 PHENYL      0.0760 
     28 H7         23.9909   29.8734   -3.2777 H         2 PHENYL      0.0669 
     29 H8         24.1644   28.0543   -4.9636 H         2 PHENYL      0.0771 
     30 H9         22.6503   28.0508   -6.9324 H         2 PHENYL      0.0669 
     31 H10        20.9839   29.8296   -7.2220 H         2 PHENYL      0.0760 
     32 H11        20.9936   34.2331   -3.9261 H         3 PHENYL      0.0760 
     33 H12        22.3162   36.2272   -4.4663 H         3 PHENYL      0.0670 
     34 H13        23.1195   34.6466   -8.3773 H         3 PHENYL      0.0675 
     35 Cl35       21.6926   32.2132   -8.3605 Cl        3 PHENYL     -0.0528 
     36 H15        19.4285   31.4034   -3.8745 H         1 PHENYL      0.1841 
@<TRIPOS>BOND
     1    2    3 ar   
     2    2    7 ar   
     3    7    6 ar   
     4    6    5 ar   
     5    5    4 ar   
     6    4    3 ar   
     7    2    1 1    
     8    8    9 ar   
     9    8   13 ar   
    10   13   12 ar   
    11   12   11 ar   
    12   11   10 ar   
    13   10    9 ar   
    14    1    8 1    
    15   14   15 ar   
    16   14   19 ar   
    17   19   18 ar   
    18   18   17 ar   
    19   17   16 ar   
    20   16   15 ar   
    21    1   14 1    
    22    1   20 1    
    23   17   21 1    
    24    3   22 1    
    25    4   23 1    
    26    5   24 1    
    27    6   25 1    
    28    7   26 1    
    29    9   27 1    
    30   10   28 1    
    31   11   29 1    
    32   12   30 1    
    33   13   31 1    
    34   15   32 1    
    35   16   33 1    
    36   18   34 1    
    37   19   35 1    
    38   20   36 1    
@<TRIPOS>SUBSTRUCTURE
     1 PHENYL      2 PERM              0 ****  ****    2 ROOT 
     2 PHENYL      8 PERM              0 ****  ****    1  
     3 PHENYL     14 PERM              0 ****  ****    1  
@<TRIPOS>NORMAL
@<TRIPOS>FF_PBC
FORCE_FIELD_SETUP_FEATURE Force Field Setup information
v1.0  0 0.000000 0.000000 0.000000 0.000000 0.000000 0.000000 NONE 0 0 0 0 1 0 0 0 0 0 0 0 0
@<TRIPOS>RENDERING_ATTRS
ANTIALIASED_LINES 
*
