#	Name:			PISM00994
#	Creating user name:	baoopengkun
#	Creation time:		Fri Jan 11 22:05:04 2019

#	Modifying user name:	baoopengkun
#	Modification time:	Fri Jan 11 22:38:12 2019

@<TRIPOS>MOLECULE
PISM00994
   37    39     1     1     0
SMALL
GAST_HUCK


@<TRIPOS>ATOM
      1 N1         15.7924    6.8661  -13.7295 N.pl3     1 <1>         0.0309 
      2 O2         16.9128    6.7967  -13.2698 O.2       1 <1>        -0.1316 
      3 C3         16.2242    3.4738   -1.3836 C.2       1 <1>         0.0412 
      4 C4         17.2685    4.1183   -1.9110 C.2       1 <1>         0.0412 
      5 O5         15.6471    7.3447  -15.0394 O.3       1 <1>        -0.0354 
      6 H1         16.1365    3.0502   -0.3843 H         1 <1>         0.0816 
      7 C7         15.1943    3.4465   -2.4306 C.2       1 <1>         0.2576 
      8 O8         14.0960    2.9374   -2.2855 O.2       1 <1>        -0.3492 
      9 N9         15.6633    4.0497   -3.4821 N.pl3     1 <1>        -0.1377 
     10 C10        16.8730    4.4794   -3.2786 C.2       1 <1>         0.2576 
     11 O11        17.5977    5.0759   -4.0566 O.2       1 <1>        -0.3492 
     12 C12        14.9787    4.2102   -4.6416 C.ar      1 <1>         0.0861 
     13 C13        14.2592    3.1441   -5.1948 C.ar      1 <1>        -0.0343 
     14 C14        13.5453    3.3105   -6.3853 C.ar      1 <1>        -0.0441 
     15 C15        13.5554    4.5436   -7.0428 C.ar      1 <1>         0.1019 
     16 C16        14.2794    5.6081   -6.5001 C.ar      1 <1>        -0.0441 
     17 C17        14.9812    5.4444   -5.3023 C.ar      1 <1>        -0.0343 
     18 S18        12.6697    4.7819   -8.5661 S.o2      1 <1>         0.0803 
     19 O19        12.0472    3.5290   -8.9479 O.2       1 <1>        -0.1467 
     20 O20        11.8607    5.9762   -8.4184 O.2       1 <1>        -0.1467 
     21 N21        13.9171    5.1002   -9.6258 N.am      1 <1>        -0.2171 
     22 C22        13.7367    5.5997  -10.9465 C.ar      1 <1>        -0.0431 
     23 C23        12.4602    5.7005  -11.5114 C.ar      1 <1>        -0.1730 
     24 C24        12.3024    6.2035  -12.8060 C.ar      1 <1>        -0.2243 
     25 C25        13.4208    6.5969  -13.5462 C.ar      1 <1>        -0.1664 
     26 C26        14.7075    6.4915  -13.0021 C.ar      1 <1>         0.0072 
     27 C27        14.8505    5.9943  -11.6988 C.ar      1 <1>        -0.1283 
     28 H2         18.2247    4.3389   -1.4394 H         1 <1>         0.0816 
     29 H4         14.2556    2.1754   -4.7058 H         1 <1>         0.0539 
     30 H5         12.9838    2.4799   -6.7995 H         1 <1>         0.0607 
     31 H6         14.2918    6.5642   -7.0138 H         1 <1>         0.0607 
     32 H7         15.5229    6.2873   -4.8858 H         1 <1>         0.0539 
     33 H8         14.8476    4.9053   -9.3216 H         1 <1>         0.2086 
     34 H9         11.5802    5.3893  -10.9604 H         1 <1>        -0.0126 
     35 H10        11.3093    6.2878  -13.2379 H         1 <1>        -0.0472 
     36 H11        13.2735    6.9847  -14.5486 H         1 <1>        -0.0037 
     37 H12        15.8387    5.9119  -11.2577 H         1 <1>        -0.0363 
@<TRIPOS>BOND
     1   26    1 1    
     2    1    2 2    
     3    4    3 2    
     4    1    5 1    
     5    3    6 1    
     6    4   28 1    
     7    3    7 1    
     8    7    8 2    
     9    9    7 1    
    10   10    9 1    
    11   10   11 2    
    12    4   10 1    
    13    9   12 1    
    14   12   13 ar   
    15   13   14 ar   
    16   14   15 ar   
    17   16   15 ar   
    18   17   16 ar   
    19   12   17 ar   
    20   15   18 1    
    21   18   19 2    
    22   18   20 2    
    23   18   21 1    
    24   21   22 1    
    25   22   23 ar   
    26   23   24 ar   
    27   24   25 ar   
    28   26   25 ar   
    29   27   26 ar   
    30   22   27 ar   
    31   13   29 1    
    32   14   30 1    
    33   16   31 1    
    34   17   32 1    
    35   21   33 1    
    36   23   34 1    
    37   24   35 1    
    38   25   36 1    
    39   27   37 1    
@<TRIPOS>SUBSTRUCTURE
     1 ****        4 TEMP              0 ****  ****    0 ROOT 
@<TRIPOS>NORMAL
@<TRIPOS>FF_PBC
FORCE_FIELD_SETUP_FEATURE Force Field Setup information
v1.0  0 0.000000 0.000000 0.000000 0.000000 0.000000 0.000000 NONE 0 0 0 0 1 0 0 0 0 0 0 0 0
