#	Name:			PISM00316
#	Creating user name:	malab
#	Creation time:		Fri Apr 05 16:56:34 2019

#	Modifying user name:	malab
#	Modification time:	Fri Apr 05 16:57:22 2019

@<TRIPOS>MOLECULE
PISM00316
   41    43     1     1     0
SMALL
GAST_HUCK


@<TRIPOS>ATOM
      1 C1        -10.5438   -2.7854    1.5698 C.ar      1 <1>        -0.0574 
      2 C2        -10.1543   -1.8995    2.5773 C.ar      1 <1>         0.0308 
      3 C3        -10.0791   -0.5300    2.3073 C.ar      1 <1>        -0.0574 
      4 C4        -10.3680   -0.0507    1.0261 C.ar      1 <1>        -0.0680 
      5 C5        -10.6635   -0.9438   -0.0098 C.ar      1 <1>        -0.0521 
      6 C6        -10.8067   -2.3054    0.2840 C.ar      1 <1>        -0.0680 
      7 Cl7        -9.7648   -2.5041    4.1752 Cl        1 <1>        -0.0786 
      8 C8        -10.8677   -0.4886   -1.4394 C.2       1 <1>        -0.0367 
      9 C9        -10.0157    0.2283   -2.2000 C.2       1 <1>         0.1198 
     10 C10        -8.6240    0.6458   -1.7339 C.3       1 <1>         0.1625 
     11 C11        -7.5341   -0.4606   -1.9767 C.3       1 <1>         0.1027 
     12 O12        -7.2594    1.9434   -4.4048 O.3       1 <1>        -0.3496 
     13 C13        -6.1188    0.1414   -1.7265 C.3       1 <1>        -0.0066 
     14 C14        -7.7163   -1.6399   -0.9690 C.3       1 <1>         0.0000 
     15 O15        -8.2831    1.9739   -2.1887 O.3       1 <1>        -0.3065 
     16 C16        -8.4226    2.1943   -3.6023 C.3       1 <1>         0.2417 
     17 H1        -10.6410   -3.8450    1.7837 H         1 <1>         0.0000 
     18 C18        -9.6200    1.4549   -4.1152 C.2       1 <1>         0.1929 
     19 N19       -10.3164    0.6048   -3.4241 N.pl3     1 <1>        -0.1909 
     20 C20       -11.3462    0.2297   -4.1644 C.2       1 <1>         0.0487 
     21 C21       -11.3057    0.8206   -5.3755 C.2       1 <1>        -0.0309 
     22 N22       -10.1182    1.6165   -5.2527 N.2       1 <1>        -0.3286 
     23 H2         -9.8013    0.1602    3.0968 H         1 <1>         0.0000 
     24 H3        -10.3761    1.0196    0.8462 H         1 <1>         0.0000 
     25 C25        -7.6122   -1.0886   -3.4032 C.3       1 <1>        -0.3858 
     26 H4        -11.1181   -2.9966   -0.4929 H         1 <1>         0.0000 
     27 H5        -11.8398   -0.8201   -1.7903 H         1 <1>         0.0000 
     28 H6         -8.6167    0.8239   -0.6544 H         1 <1>         0.0000 
     29 H7         -6.5183    2.4835   -4.1507 H         1 <1>         0.0000 
     30 H8         -6.0430    0.5289   -0.6987 H         1 <1>         0.0000 
     31 H9         -5.9041    0.9659   -2.4159 H         1 <1>         0.0000 
     32 H10        -5.3348   -0.6191   -1.8651 H         1 <1>         0.0000 
     33 H11        -8.6356   -2.1960   -1.1933 H         1 <1>         0.0000 
     34 H12        -7.7601   -1.2895    0.0731 H         1 <1>         0.0000 
     35 H13        -6.8806   -2.3523   -1.0436 H         1 <1>         0.0000 
     36 H14        -8.6591    3.2668   -3.7009 H         1 <1>         0.0000 
     37 H15       -12.1600   -0.4589   -3.9459 H         1 <1>         0.0000 
     38 H16       -11.9891    0.7221   -6.2189 H         1 <1>         0.0000 
     39 H17        -7.4087   -0.3686   -4.1997 H         1 <1>         0.0000 
     40 H18        -8.6055   -1.5247   -3.5890 H         1 <1>         0.0000 
     41 H19        -6.8705   -1.8960   -3.5029 H         1 <1>         0.0000 
@<TRIPOS>BOND
     1    1    2 ar   
     2    3    2 ar   
     3    4    3 ar   
     4    5    4 ar   
     5    5    6 ar   
     6    6    1 ar   
     7    2    7 1    
     8    8    5 1    
     9    9    8 2    
    10   10    9 1    
    11   10   11 1    
    12   16   12 1    
    13   11   13 1    
    14   11   14 1    
    15   15   10 1    
    16   15   16 1    
    17    1   17 1    
    18   16   18 1    
    19   18   19 1    
    20    9   19 1    
    21   19   20 1    
    22   20   21 2    
    23   21   22 1    
    24   18   22 2    
    25    3   23 1    
    26    4   24 1    
    27   11   25 1    
    28    6   26 1    
    29    8   27 1    
    30   10   28 1    
    31   12   29 1    
    32   13   30 1    
    33   13   31 1    
    34   13   32 1    
    35   14   33 1    
    36   14   34 1    
    37   14   35 1    
    38   16   36 1    
    39   20   37 1    
    40   21   38 1    
    41   25   39 1    
    42   25   40 1    
    43   25   41 1    
@<TRIPOS>SUBSTRUCTURE
     1 ****        2 TEMP              0 ****  ****    0 ROOT 
@<TRIPOS>NORMAL
@<TRIPOS>FF_PBC
FORCE_FIELD_SETUP_FEATURE Force Field Setup information
v1.0  0 0.000000 0.000000 0.000000 0.000000 0.000000 0.000000 NONE 0 0 0 0 0 0 0 0 0 0 0 0 0
