#	Name:			PISM00166
#	Creating user name:	14062
#	Creation time:		Sun Mar 31 13:58:26 2019

#	Modifying user name:	14062
#	Modification time:	Sun Mar 31 14:02:08 2019

@<TRIPOS>MOLECULE
PISM00166
   31    33     1     1     0
SMALL
GAST_HUCK


@<TRIPOS>ATOM
      1 C1          6.1064    6.4826   -8.2592 C.2       1 BENZYL      0.0900 
      2 C1          7.0631    6.5761   -9.1915 C.2       1 BENZYL     -0.0278 
      3 C2          6.8877    6.0396  -10.5943 C.ar      1 BENZYL     -0.0201 
      4 C3          5.7330    6.3376  -11.3253 C.ar      1 BENZYL     -0.0212 
      5 C4          5.5031    5.7392  -12.5664 C.ar      1 BENZYL      0.0918 
      6 C5          6.4800    4.9007  -13.1174 C.ar      1 BENZYL     -0.0290 
      7 C6          7.6733    4.6673  -12.4268 C.ar      1 BENZYL     -0.0650 
      8 C7          7.8803    5.2407  -11.1689 C.ar      1 BENZYL     -0.0593 
      9 O9          4.3008    5.9920  -13.2322 O.3       1 BENZYL     -0.3324 
     10 C10         4.7773    5.8618   -8.2075 C.2       1 BENZYL      0.0956 
     11 C11         4.2089    4.9768   -9.2939 C.ar      1 BENZYL     -0.0048 
     12 C12         4.9815    3.9485   -9.8441 C.ar      1 BENZYL     -0.0544 
     13 C13         4.4914    3.1987  -10.9170 C.ar      1 BENZYL     -0.0622 
     14 C14         3.2061    3.4429  -11.4088 C.ar      1 BENZYL     -0.0627 
     15 C15         2.4078    4.4262  -10.8171 C.ar      1 BENZYL     -0.0622 
     16 C16         2.9052    5.1853   -9.7537 C.ar      1 BENZYL     -0.0544 
     17 N17         4.1058    6.1029   -7.1455 N.2       1 BENZYL     -0.1222 
     18 O18         4.9399    6.8496   -6.2762 O.3       1 BENZYL     -0.1269 
     19 C19         6.0849    7.0247   -6.9182 C.2       1 BENZYL      0.3102 
     20 O20         7.0361    7.6058   -6.4218 O.2       1 BENZYL     -0.3491 
     21 H1          8.0041    7.0636   -8.9366 H         1 BENZYL      0.0785 
     22 H2          5.0020    7.0358  -10.9324 H         1 BENZYL      0.0574 
     23 H3          6.3208    4.4303  -14.0821 H         1 BENZYL      0.0580 
     24 H4          8.4403    4.0375  -12.8676 H         1 BENZYL      0.0602 
     25 H5          8.8085    5.0593  -10.6361 H         1 BENZYL      0.0570 
     26 H6          4.1061    5.3725  -13.9261 H         1 BENZYL      0.2479 
     27 H7          5.9642    3.7291   -9.4389 H         1 BENZYL      0.0615 
     28 H8          5.1088    2.4276  -11.3675 H         1 BENZYL      0.0615 
     29 H9          2.8273    2.8679  -12.2481 H         1 BENZYL      0.0610 
     30 H10         1.4015    4.6016  -11.1850 H         1 BENZYL      0.0615 
     31 H11         2.2809    5.9423   -9.2896 H         1 BENZYL      0.0615 
@<TRIPOS>BOND
     1    2    3 1    
     2    3    4 ar   
     3    3    8 ar   
     4    8    7 ar   
     5    7    6 ar   
     6    6    5 ar   
     7    5    4 ar   
     8    2    1 2    
     9    5    9 1    
    10    1   10 1    
    11   10   11 1    
    12   11   12 ar   
    13   12   13 ar   
    14   13   14 ar   
    15   14   15 ar   
    16   15   16 ar   
    17   11   16 ar   
    18   10   17 2    
    19   17   18 1    
    20   18   19 1    
    21    1   19 1    
    22   19   20 2    
    23    2   21 1    
    24    4   22 1    
    25    6   23 1    
    26    7   24 1    
    27    8   25 1    
    28    9   26 1    
    29   12   27 1    
    30   13   28 1    
    31   14   29 1    
    32   15   30 1    
    33   16   31 1    
@<TRIPOS>SUBSTRUCTURE
     1 BENZYL      2 PERM              0 ****  ****    0 ROOT 
@<TRIPOS>NORMAL
@<TRIPOS>FF_PBC
FORCE_FIELD_SETUP_FEATURE Force Field Setup information
v1.0  0 0.000000 0.000000 0.000000 0.000000 0.000000 0.000000 NONE 0 0 0 0 1 0 0 0 0 0 0 0 0
