#	Name:			PISM00791
#	Creating user name:	baoopengkun
#	Creation time:		Tue Jan 08 16:03:14 2019

#	Modifying user name:	baoopengkun
#	Modification time:	Tue Jan 08 16:03:38 2019

@<TRIPOS>MOLECULE
PISM00791
   55    59     1     1     0
SMALL
GAST_HUCK


@<TRIPOS>ATOM
      1 C1         16.2852    9.5878  -43.5456 C.ar      1 <1>        -0.0352 
      2 C2         14.4905   11.1759  -44.2562 C.ar      1 <1>        -0.0677 
      3 C3         13.6099   12.2419  -44.0256 C.ar      1 <1>        -0.0409 
      4 C4         13.6381   12.8347  -42.7629 C.ar      1 <1>         0.0664 
      5 C5         14.5153   12.3807  -41.7872 C.ar      1 <1>        -0.0096 
      6 C6         15.4016   11.3269  -41.9975 C.ar      1 <1>        -0.0641 
      7 C7         14.1973   13.2941  -40.6345 C.2       1 <1>        -0.0155 
      8 C8         13.2353   14.1089  -41.0523 C.2       1 <1>         0.1041 
      9 N9         12.8929   13.8621  -42.2890 N.pl3     1 <1>        -0.2675 
     10 C10        11.8666   14.5780  -43.0366 C.3       1 <1>         0.0369 
     11 C11        12.8800   15.0182  -39.9676 C.2       1 <1>         0.1400 
     12 O12        12.0560   15.9184  -39.9720 O.2       1 <1>        -0.4040 
     13 C13        13.7405   14.6110  -38.8412 C.2       1 <1>         0.0306 
     14 C14        14.6865   13.4836  -39.2254 C.3       1 <1>         0.0054 
     15 C15        13.6899   15.1635  -37.6251 C.2       1 <1>         0.0831 
     16 O16        14.5094   14.7154  -36.6630 O.3       1 <1>        -0.2667 
     17 C17        14.3794   15.4114  -35.4113 C.3       1 <1>         0.2400 
     18 C18        14.7372   16.8733  -35.5354 C.2       1 <1>        -0.0007 
     19 C19        13.7162   17.6326  -35.1420 C.2       1 <1>         0.0293 
     20 C20        12.6901   16.6644  -34.7664 C.2       1 <1>         0.2496 
     21 O21        13.0224   15.3883  -34.9241 O.3       1 <1>        -0.2302 
     22 C22        13.6414   19.1339  -35.0908 C.3       1 <1>        -0.0323 
     23 O23        11.5976   16.9973  -34.3414 O.2       1 <1>        -0.3691 
     24 C24        17.1599    9.6402  -44.6348 C.ar      1 <1>        -0.0641 
     25 C25        18.0152    8.5680  -44.9092 C.ar      1 <1>        -0.0328 
     26 C26        18.0081    7.4326  -44.0873 C.ar      1 <1>         0.0910 
     27 C27        17.1366    7.3904  -42.9953 C.ar      1 <1>        -0.0328 
     28 C28        16.2757    8.4574  -42.7239 C.ar      1 <1>        -0.0641 
     29 O29        18.8452    6.3310  -44.3187 O.3       1 <1>        -0.3210 
     30 C30        19.7609    6.2858  -45.4249 C.3       1 <1>         0.0596 
     31 C31        16.1732   13.9145  -39.2180 C.3       1 <1>        -0.0510 
     32 H1         14.4864   10.6899  -45.2267 H         1 <1>         0.0551 
     33 H2         12.9336   12.5906  -44.7981 H         1 <1>         0.0548 
     34 H3         16.0780   10.9978  -41.2166 H         1 <1>         0.0558 
     35 H4         12.3184   15.0462  -43.9240 H         1 <1>         0.0555 
     36 C36        15.3722   10.7225  -43.2611 C.ar      1 <1>        -0.0382 
     37 H5         11.3945   15.3653  -42.4289 H         1 <1>         0.0555 
     38 H6         11.0864   13.8715  -43.3580 H         1 <1>         0.0555 
     39 H7         14.5083   12.5792  -38.6221 H         1 <1>         0.0507 
     40 H8         12.9624   15.9661  -37.4822 H         1 <1>         0.1132 
     41 H9         15.0399   14.9324  -34.6707 H         1 <1>         0.1214 
     42 H10        15.6954   17.2463  -35.8949 H         1 <1>         0.0706 
     43 H11        13.5450   19.5318  -36.1119 H         1 <1>         0.0347 
     44 H12        14.5531   19.5414  -34.6288 H         1 <1>         0.0347 
     45 H13        12.7699   19.4518  -34.4990 H         1 <1>         0.0347 
     46 H14        17.1771   10.5199  -45.2708 H         1 <1>         0.0587 
     47 H15        18.6739    8.6440  -45.7655 H         1 <1>         0.0544 
     48 H16        17.1323    6.5151  -42.3543 H         1 <1>         0.0544 
     49 H17        15.5994    8.4052  -41.8765 H         1 <1>         0.0587 
     50 H18        20.2889    5.3218  -45.3827 H         1 <1>         0.0578 
     51 H19        20.5067    7.0924  -45.3541 H         1 <1>         0.0578 
     52 H20        19.2249    6.3455  -46.3846 H         1 <1>         0.0578 
     53 H21        16.7976   13.1120  -39.6397 H         1 <1>         0.0265 
     54 H22        16.5106   14.1183  -38.1908 H         1 <1>         0.0265 
     55 H23        16.3098   14.8243  -39.8230 H         1 <1>         0.0265 
@<TRIPOS>BOND
     1   36    1 1    
     2    3    2 ar   
     3    4    3 ar   
     4    5    4 ar   
     5    6    5 ar   
     6    1   24 ar   
     7    5    7 1    
     8    7    8 2    
     9    8    9 1    
    10    4    9 1    
    11    9   10 1    
    12    8   11 1    
    13   11   12 2    
    14   13   11 1    
    15   14   13 1    
    16    7   14 1    
    17   13   15 2    
    18   15   16 1    
    19   16   17 1    
    20   17   18 1    
    21   18   19 2    
    22   20   19 1    
    23   21   20 1    
    24   17   21 1    
    25   19   22 1    
    26   20   23 2    
    27    6   36 ar   
    28   24   25 ar   
    29   25   26 ar   
    30   26   27 ar   
    31   27   28 ar   
    32    1   28 ar   
    33   26   29 1    
    34   29   30 1    
    35   14   31 1    
    36    2   32 1    
    37    3   33 1    
    38    6   34 1    
    39   10   35 1    
    40   10   37 1    
    41    2   36 ar   
    42   10   38 1    
    43   14   39 1    
    44   15   40 1    
    45   17   41 1    
    46   18   42 1    
    47   22   43 1    
    48   22   44 1    
    49   22   45 1    
    50   24   46 1    
    51   25   47 1    
    52   27   48 1    
    53   28   49 1    
    54   30   50 1    
    55   30   51 1    
    56   30   52 1    
    57   31   53 1    
    58   31   54 1    
    59   31   55 1    
@<TRIPOS>SUBSTRUCTURE
     1 ****        2 TEMP              0 ****  ****    0 ROOT 
@<TRIPOS>NORMAL
@<TRIPOS>FF_PBC
FORCE_FIELD_SETUP_FEATURE Force Field Setup information
v1.0  0 0.000000 0.000000 0.000000 0.000000 0.000000 0.000000 NONE 0 0 0 0 1 0 0 0 0 0 0 0 0
