#	Name:			PISM01006.1
#	Creating user name:	malab
#	Creation time:		Thu Jul 04 18:09:46 2019

#	Modifying user name:	malab
#	Modification time:	Thu Jul 04 18:09:55 2019

@<TRIPOS>MOLECULE
PISM01006.1
   55    57     1     2     0
SMALL
GAST_HUCK


@<TRIPOS>ATOM
      1 C1         19.6425   25.9313   33.2446 C.3       1 <1>        -0.0652 
      2 C2         19.2253   24.4397   33.1675 C.3       1 <1>        -0.0535 
      3 C3         20.2066   23.5383   33.9652 C.3       1 <1>        -0.0253 
      4 C4         19.7973   22.0461   33.8939 C.3       1 <1>         0.0704 
      5 O5         20.7439   21.2783   34.6559 O.3       1 <1>        -0.3180 
      6 C6         20.4793   19.9102   34.6625 C.ar      1 <1>         0.0912 
      7 C7         21.0991   19.0757   33.7293 C.ar      1 <1>        -0.0313 
      8 C8         20.8105   17.7081   33.7148 C.ar      1 <1>        -0.0440 
      9 C9         19.9012   17.1745   34.6332 C.ar      1 <1>         0.0971 
     10 C10        19.3049   18.0064   35.5854 C.ar      1 <1>        -0.0440 
     11 C11        19.5940   19.3738   35.6009 C.ar      1 <1>        -0.0313 
     12 S12        19.4549   15.4596   34.5506 S.o2      1 <1>         0.0658 
     13 O13        18.9954   15.0241   35.8548 O.2       1 <1>        -0.1515 
     14 O14        20.5132   14.7222   33.8885 O.2       1 <1>        -0.1515 
     15 N15        18.1291   15.6092   33.5032 N.am      1 <1>        -0.2314 
     16 C16        16.7983   15.8681   34.0250 C.3       1 <1>         0.0499 
     17 C17        16.3397   17.2590   33.5166 C.3       1 <1>         0.0510 
     18 N18        16.6330   17.4503   32.0872 N.am      1 <1>        -0.2699 
     19 C19        17.9195   17.0005   31.5362 C.3       1 <1>         0.0510 
     20 C20        18.3218   15.6022   32.0630 C.3       1 <1>         0.0499 
     21 C21        15.8220   18.1960   31.2803 C.2       1 <1>         0.1842 
     22 O22        16.1134   18.3982   30.1134 O.2       1 <1>        -0.3965 
     23 C23        13.3557   17.8434   31.4123 C.3       1 <1>         0.1408 
     24 C24        13.5660   16.4610   31.9854 C.2       1 <1>        -0.0225 
     25 C25        12.6352   16.1673   32.8914 C.2       1 <1>         0.0124 
     26 C26        11.7998   17.3626   32.8989 C.2       1 <1>         0.2366 
     27 O27        12.1617   18.3262   32.0595 O.3       1 <1>        -0.2588 
     28 O28        10.8295   17.4744   33.6275 O.2       1 <1>        -0.3743 
     29 H1         18.9346   26.5532   32.6740 H         1 <1>         0.0230 
     30 C30        14.5166   18.8248   31.7058 C.3       1 <1>         0.0816 
     31 H2         20.6500   26.0710   32.8224 H         1 <1>         0.0230 
     32 H3         19.6465   26.2759   34.2906 H         1 <1>         0.0230 
     33 H4         19.2095   24.1239   32.1110 H         1 <1>         0.0263 
     34 H5         18.2069   24.3291   33.5762 H         1 <1>         0.0263 
     35 H6         20.2231   23.8502   35.0224 H         1 <1>         0.0291 
     36 H7         21.2257   23.6454   33.5588 H         1 <1>         0.0291 
     37 H8         19.7978   21.7089   32.8440 H         1 <1>         0.0614 
     38 H9         18.7839   21.9181   34.3092 H         1 <1>         0.0614 
     39 H10        21.8022   19.4956   33.0175 H         1 <1>         0.0542 
     40 H11        21.2898   17.0610   32.9882 H         1 <1>         0.0608 
     41 H12        18.6146   17.5905   36.3115 H         1 <1>         0.0608 
     42 H13        19.1336   20.0231   36.3381 H         1 <1>         0.0542 
     43 H14        16.7671   15.8336   35.1255 H         1 <1>         0.0498 
     44 H15        16.1196   15.0886   33.6435 H         1 <1>         0.0498 
     45 H16        16.8890   18.0370   34.0697 H         1 <1>         0.0538 
     46 H17        15.2789   17.3293   33.7926 H         1 <1>         0.0538 
     47 H18        18.6825   17.7308   31.8476 H         1 <1>         0.0538 
     48 H19        17.9368   16.9458   30.4349 H         1 <1>         0.0538 
     49 H20        19.3601   15.3692   31.7791 H         1 <1>         0.0498 
     50 H21        17.6650   14.8376   31.6182 H         1 <1>         0.0498 
     51 H22        13.1863   17.7551   30.3255 H         1 <1>         0.0904 
     52 H23        14.3740   15.7892   31.6944 H         1 <1>         0.0885 
     53 H24        12.5139   15.2612   33.4834 H         1 <1>         0.0485 
     54 H25        14.3442   19.7364   31.1110 H         1 <1>         0.0564 
     55 H26        14.5200   19.1509   32.7540 H         1 <1>         0.0564 
@<TRIPOS>BOND
     1    2    1 1    
     2    3    2 1    
     3    4    3 1    
     4    5    4 1    
     5    6    5 1    
     6    7    6 ar   
     7    8    7 ar   
     8    9    8 ar   
     9    9   10 ar   
    10   10   11 ar   
    11   11    6 ar   
    12   12    9 1    
    13   12   13 2    
    14   12   14 2    
    15   15   12 1    
    16   16   15 1    
    17   17   16 1    
    18   18   17 1    
    19   18   19 1    
    20   19   20 1    
    21   20   15 1    
    22   21   18 am   
    23   21   22 2    
    24   30   21 1    
    25   23   24 1    
    26   24   25 2    
    27   26   25 1    
    28   27   26 1    
    29   23   27 1    
    30   26   28 2    
    31    1   29 1    
    32   23   30 1    
    33    1   31 1    
    34    1   32 1    
    35    2   33 1    
    36    2   34 1    
    37    3   35 1    
    38    3   36 1    
    39    4   37 1    
    40    4   38 1    
    41    7   39 1    
    42    8   40 1    
    43   10   41 1    
    44   11   42 1    
    45   16   43 1    
    46   16   44 1    
    47   17   45 1    
    48   17   46 1    
    49   19   47 1    
    50   19   48 1    
    51   20   49 1    
    52   20   50 1    
    53   23   51 1    
    54   24   52 1    
    55   25   53 1    
    56   30   54 1    
    57   30   55 1    
@<TRIPOS>SUBSTRUCTURE
     1 ****       23 TEMP              0 ****  ****    0 ROOT 
@<TRIPOS>NORMAL
@<TRIPOS>FF_PBC
FORCE_FIELD_SETUP_FEATURE Force Field Setup information
v1.0  0 0.000000 0.000000 0.000000 0.000000 0.000000 0.000000 NONE 0 0 0 0 1 0 0 0 0 0 0 0 0
@<TRIPOS>RENDERING_ATTRS
ANTIALIASED_LINES 
1,2,3,4,5,6,7,8,9,10,11,12,13,14,15,16,17,18,19,20,21,22,23,24,25,26,27,28,29,30,31,32,33,34,35,36,37,38,39,40,41,42,43,44,45,46,47,48,49,50,51,52,53
