#	Name:			PISM00224
#	Creating user name:	14062
#	Creation time:		Fri Apr 05 23:23:47 2019

#	Modifying user name:	14062
#	Modification time:	Fri Apr 05 23:28:07 2019

@<TRIPOS>MOLECULE
PISM00224
   34    36     1     2     0
SMALL
GAST_HUCK


@<TRIPOS>ATOM
      1 Cl1         6.3285    0.3027    1.7673 Cl        1 BENZYL     -0.0810 
      2 O2          0.7334    1.6966    3.2542 O.3       1 BENZYL     -0.2957 
      3 C2          2.0311    1.3623    2.8470 C.ar      1 BENZYL      0.1091 
      4 C3          2.3650    0.0518    2.4841 C.ar      1 BENZYL     -0.0315 
      5 C4          3.6858   -0.2744    2.1619 C.ar      1 BENZYL     -0.0564 
      6 C5          4.6708    0.7161    2.1535 C.ar      1 BENZYL      0.0291 
      7 C6          4.3293    2.0370    2.4524 C.ar      1 BENZYL     -0.0426 
      8 C7          3.0125    2.3586    2.7926 C.ar      1 BENZYL      0.0687 
      9 C9         -0.0528    3.2189    5.9338 C.3       1 BENZYL      0.0557 
     10 C10        -0.5417    4.6393    6.3536 C.3       1 BENZYL      0.0014 
     11 C11         0.0723    0.8738    4.2388 C.3       1 BENZYL      0.1645 
     12 C12        -1.2393    1.5134    4.6378 C.2       1 BENZYL      0.2327 
     13 N13        -1.2622    2.5618    5.4267 N.pl3     1 BENZYL     -0.2248 
     14 C14        -2.3772    3.2230    5.8179 C.ar      1 BENZYL      0.0670 
     15 C15        -2.0528    4.4604    6.3562 C.ar      1 BENZYL     -0.0178 
     16 C16        -3.0262    5.3539    6.8042 C.ar      1 BENZYL     -0.0702 
     17 C17        -4.3668    4.9677    6.7074 C.ar      1 BENZYL     -0.0807 
     18 C18        -4.7048    3.7105    6.1905 C.ar      1 BENZYL     -0.0792 
     19 C19        -3.7163    2.8184    5.7563 C.ar      1 BENZYL     -0.0461 
     20 H1          1.6097   -0.7232    2.4394 H         1 BENZYL      0.0543 
     21 O21        -2.2446    0.9994    4.1755 O.2       1 BENZYL     -0.3769 
     22 Cl22        2.5977    4.0228    3.1510 Cl        1 BENZYL     -0.0787 
     23 H2          3.9490   -1.2981    1.9153 H         1 BENZYL      0.0597 
     24 H3          5.0874    2.8125    2.4197 H         1 BENZYL      0.0601 
     25 H4          0.7702    3.2988    5.2084 H         1 BENZYL      0.0576 
     26 H5          0.2955    2.6636    6.8202 H         1 BENZYL      0.0576 
     27 H6         -0.2927    5.3978    5.5941 H         1 BENZYL      0.0424 
     28 H7         -0.1608    4.9563    7.3379 H         1 BENZYL      0.0424 
     29 H8          0.7040    0.7364    5.1288 H         1 BENZYL      0.0868 
     30 H9         -0.1554   -0.1209    3.8294 H         1 BENZYL      0.0868 
     31 H10        -2.7458    6.3195    7.2119 H         1 BENZYL      0.0522 
     32 H11        -5.1479    5.6473    7.0350 H         1 BENZYL      0.0497 
     33 H12        -5.7501    3.4233    6.1271 H         1 BENZYL      0.0528 
     34 H13        -4.0158    1.8426    5.3961 H         1 BENZYL      0.0508 
@<TRIPOS>BOND
     1    2    3 1    
     2    3    4 ar   
     3    3    8 ar   
     4    8    7 ar   
     5    7    6 ar   
     6    6    5 ar   
     7    5    4 ar   
     8    6    1 1    
     9   13    9 1    
    10    9   10 1    
    11    2   11 1    
    12   11   12 1    
    13   12   13 1    
    14   13   14 1    
    15   14   15 ar   
    16   15   16 ar   
    17   16   17 ar   
    18   17   18 ar   
    19   18   19 ar   
    20   14   19 ar   
    21   15   10 1    
    22   12   21 2    
    23    8   22 1    
    24    4   20 1    
    25    5   23 1    
    26    7   24 1    
    27    9   25 1    
    28    9   26 1    
    29   10   27 1    
    30   10   28 1    
    31   11   29 1    
    32   11   30 1    
    33   16   31 1    
    34   17   32 1    
    35   18   33 1    
    36   19   34 1    
@<TRIPOS>SUBSTRUCTURE
     1 BENZYL      2 PERM              0 ****  ****    0 ROOT 
@<TRIPOS>NORMAL
@<TRIPOS>FF_PBC
FORCE_FIELD_SETUP_FEATURE Force Field Setup information
v1.0  0 0.000000 0.000000 0.000000 0.000000 0.000000 0.000000 NONE 0 0 0 0 1 0 0 0 0 0 0 0 0
@<TRIPOS>RENDERING_ATTRS
ANTIALIASED_LINES 
1,2,3,4,5,6,7,8,9,11,12,13,14,15,16,17,18,19,21,22
