#	Name:			PISM01187
#	Creating user name:	baoopengkun
#	Creation time:		Tue Dec 18 21:59:06 2018

#	Modifying user name:	baoopengkun
#	Modification time:	Tue Dec 18 22:02:37 2018

@<TRIPOS>MOLECULE
PISM01187
   63    65     1     1     0
SMALL
GAST_HUCK


@<TRIPOS>ATOM
      1 C1         14.1517   29.6697  -36.0846 C.3       1 <1>         0.0627 
      2 C2         14.0934   30.1799  -34.6074 C.3       1 <1>        -0.0259 
      3 C3         15.3284   29.7894  -33.7512 C.3       1 <1>        -0.0452 
      4 C4         15.8288   28.3492  -34.0534 C.3       1 <1>        -0.0290 
      5 C5         16.2889   28.2654  -35.5658 C.3       1 <1>         0.0025 
      6 C6         15.5985   29.2893  -36.5684 C.3       1 <1>         0.0364 
      7 C7         15.4886   28.6249  -38.0103 C.3       1 <1>         0.1656 
      8 C8         16.8082   27.9286  -38.4742 C.3       1 <1>         0.1220 
      9 C9         17.0435   26.7000  -37.5220 C.3       1 <1>         0.1425 
     10 C10        16.3383   26.8086  -36.1258 C.3       1 <1>         0.0921 
     11 O11        16.6325   27.3305  -39.7884 O.3       1 <1>        -0.4040 
     12 C12        16.1329   28.1344  -40.8822 C.3       1 <1>         0.0611 
     13 C13        14.7994   28.8096  -40.4775 C.3       1 <1>         0.0245 
     14 C14        14.9683   29.4888  -39.1463 C.2       1 <1>         0.1545 
     15 O15        14.6538   30.6632  -39.0350 O.2       1 <1>        -0.3305 
     16 C16        14.7077   27.3286  -33.6762 C.3       1 <1>        -0.0595 
     17 C17        17.0153   28.0879  -33.0628 C.3       1 <1>        -0.0595 
     18 C18        16.4022   30.6538  -36.6182 C.3       1 <1>        -0.0552 
     19 C19        18.0802   28.8298  -38.4997 C.3       1 <1>        -0.0324 
     20 C20        17.1187   29.1737  -41.4862 C.3       1 <1>        -0.0640 
     21 C21        15.9643   27.0840  -41.9631 C.2       1 <1>        -0.0475 
     22 C22        14.9679   27.0332  -42.8570 C.2       1 <1>        -0.0388 
     23 H23        17.3603   28.4968  -35.5452 H         1 <1>         0.0337 
     24 O24        17.0074   25.8883  -35.2432 O.3       1 <1>        -0.3885 
     25 O25        18.4447   26.4752  -37.2184 O.3       1 <1>        -0.2683 
     26 C26        19.1696   25.9494  -38.2153 C.2       1 <1>         0.2310 
     27 O27        18.7090   25.5835  -39.2838 O.2       1 <1>        -0.3707 
     28 C28        20.6345   25.8139  -37.9173 C.3       1 <1>         0.0372 
     29 O29        14.5522   27.5240  -38.0139 O.3       1 <1>        -0.3826 
     30 O30        13.2106   28.5940  -36.2871 O.3       1 <1>        -0.3913 
     31 H1         13.7838   30.4831  -36.7363 H         1 <1>         0.0598 
     32 H2         13.1898   29.7822  -34.1177 H         1 <1>         0.0290 
     33 H3         13.9947   31.2786  -34.5739 H         1 <1>         0.0290 
     34 H4         15.0508   29.8954  -32.6887 H         1 <1>         0.0271 
     35 H5         16.1649   30.4851  -33.9106 H         1 <1>         0.0271 
     36 H6         16.6177   25.7838  -37.9699 H         1 <1>         0.0703 
     37 H7         15.3091   26.4207  -36.1553 H         1 <1>         0.0627 
     38 H8         14.0083   28.0516  -40.3760 H         1 <1>         0.0398 
     39 H9         14.4824   29.5407  -41.2376 H         1 <1>         0.0398 
     40 H10        13.8499   27.3689  -34.3548 H         1 <1>         0.0235 
     41 H11        14.3342   27.5262  -32.6599 H         1 <1>         0.0235 
     42 H12        15.0863   26.2964  -33.6820 H         1 <1>         0.0235 
     43 H13        17.8468   28.7881  -33.2370 H         1 <1>         0.0235 
     44 H14        16.6875   28.2200  -32.0199 H         1 <1>         0.0235 
     45 H15        17.4109   27.0678  -33.1404 H         1 <1>         0.0235 
     46 H16        16.3996   31.1196  -37.6071 H         1 <1>         0.0235 
     47 H17        17.4573   30.5758  -36.3282 H         1 <1>         0.0235 
     48 H18        15.9806   31.4309  -35.9690 H         1 <1>         0.0235 
     49 H19        17.8746   29.8442  -38.8478 H         1 <1>         0.0257 
     50 H20        18.8258   28.3910  -39.1779 H         1 <1>         0.0257 
     51 H21        18.5619   28.9122  -37.5185 H         1 <1>         0.0257 
     52 H22        16.8092   29.4313  -42.5115 H         1 <1>         0.0142 
     53 H24        18.1355   28.7561  -41.5318 H         1 <1>         0.0142 
     54 H25        17.1295   30.1168  -40.9265 H         1 <1>         0.0142 
     55 H26        16.7356   26.3120  -42.0130 H         1 <1>         0.0616 
     56 H27        14.1627   27.7638  -42.8973 H         1 <1>         0.1385 
     57 H28        14.9399   26.2315  -43.5956 H         1 <1>         0.1385 
     58 H29        17.9491   26.0349  -35.2380 H         1 <1>         0.2099 
     59 H30        21.1887   25.5435  -38.8284 H         1 <1>         0.0483 
     60 H31        20.7788   25.0294  -37.1605 H         1 <1>         0.0483 
     61 H32        21.0224   26.7680  -37.5315 H         1 <1>         0.0483 
     62 H33        13.6754   27.7680  -37.7336 H         1 <1>         0.2078 
     63 H34        12.3085   28.8205  -36.0688 H         1 <1>         0.2098 
@<TRIPOS>BOND
     1    2    1 1    
     2    2    3 1    
     3    3    4 1    
     4    4    5 1    
     5    5    6 1    
     6    1    6 1    
     7    6    7 1    
     8    7    8 1    
     9    8    9 1    
    10    9   10 1    
    11    5   10 1    
    12    8   11 1    
    13   11   12 1    
    14   12   13 1    
    15   13   14 1    
    16    7   14 1    
    17   14   15 2    
    18    4   16 1    
    19    4   17 1    
    20    6   18 1    
    21    8   19 1    
    22   12   20 1    
    23   12   21 1    
    24   21   22 2    
    25    5   23 1    
    26   10   24 1    
    27    9   25 1    
    28   25   26 1    
    29   26   27 2    
    30   26   28 1    
    31    7   29 1    
    32    1   30 1    
    33    1   31 1    
    34    2   32 1    
    35    2   33 1    
    36    3   34 1    
    37    3   35 1    
    38    9   36 1    
    39   10   37 1    
    40   13   38 1    
    41   13   39 1    
    42   16   40 1    
    43   16   41 1    
    44   16   42 1    
    45   17   43 1    
    46   17   44 1    
    47   17   45 1    
    48   18   46 1    
    49   18   47 1    
    50   18   48 1    
    51   19   49 1    
    52   19   50 1    
    53   19   51 1    
    54   20   52 1    
    55   20   53 1    
    56   20   54 1    
    57   21   55 1    
    58   22   56 1    
    59   22   57 1    
    60   24   58 1    
    61   28   59 1    
    62   28   60 1    
    63   28   61 1    
    64   29   62 1    
    65   30   63 1    
@<TRIPOS>SUBSTRUCTURE
     1 ****        2 TEMP              0 ****  ****    0 ROOT 
@<TRIPOS>NORMAL
@<TRIPOS>FF_PBC
FORCE_FIELD_SETUP_FEATURE Force Field Setup information
v1.0  0 0.000000 0.000000 0.000000 0.000000 0.000000 0.000000 NONE 0 0 0 0 1 0 0 0 0 0 0 0 0
