#	Name:			PISM00177
#	Creating user name:	14062
#	Creation time:		Sun Mar 31 15:38:02 2019

#	Modifying user name:	14062
#	Modification time:	Sun Mar 31 16:26:35 2019

@<TRIPOS>MOLECULE
PISM00177
   23    24     1     2     0
SMALL
GAST_HUCK


@<TRIPOS>ATOM
      1 C1         -1.0571    8.4663   -7.8131 C.ar      1 <1>        -0.0527 
      2 C2         -0.1673    7.4963   -8.2848 C.ar      1 <1>        -0.0582 
      3 C3         -0.1763    6.2010   -7.7496 C.ar      1 <1>         0.0009 
      4 C4         -1.0896    5.9034   -6.7308 C.ar      1 <1>        -0.0444 
      5 C5         -1.9768    6.8710   -6.2519 C.ar      1 <1>         0.0492 
      6 C6         -1.9610    8.1591   -6.7932 C.ar      1 <1>         0.0487 
      7 C7          0.7610    5.1052   -8.2204 C.2       1 <1>         0.1120 
      8 C8          1.6162    5.2193   -9.2427 C.2       1 <1>        -0.0650 
      9 C9          2.2816    3.9183   -9.2788 C.2       1 <1>        -0.0577 
     10 C10         1.7001    3.2654   -8.2721 C.2       1 <1>         0.1280 
     11 O11         0.7608    3.9249   -7.5901 O.3       1 <1>        -0.2548 
     12 C12         2.0050    1.8548   -7.8330 C.3       1 <1>         0.1114 
     13 O13         2.4156    1.8132   -6.4539 O.3       1 <1>        -0.3781 
     14 H1         -1.0490    9.4662   -8.2356 H         1 <1>         0.0608 
     15 H2          0.5273    7.7734   -9.0686 H         1 <1>         0.0578 
     16 H3         -1.1183    4.9094   -6.2973 H         1 <1>         0.0583 
     17 Cl17       -3.0640    9.3873   -6.2021 Cl        1 <1>        -0.0745 
     18 H4          1.8185    6.0468   -9.9188 H         1 <1>         0.0364 
     19 H5          3.0599    3.5752   -9.9598 H         1 <1>         0.0264 
     20 H6          2.7816    1.4028   -8.4720 H         1 <1>         0.0771 
     21 Cl21       -3.1050    6.4608   -4.9734 Cl        1 <1>        -0.0716 
     22 H7          1.0849    1.2595   -7.9347 H         1 <1>         0.0771 
     23 H8          3.1901    2.3409   -6.2838 H         1 <1>         0.2131 
@<TRIPOS>BOND
     1    2    1 ar   
     2    2    3 ar   
     3    3    4 ar   
     4    4    5 ar   
     5    1    6 ar   
     6    5    6 ar   
     7    3    7 1    
     8    7    8 2    
     9    8    9 1    
    10   10    9 2    
    11   11   10 1    
    12    7   11 1    
    13   10   12 1    
    14   12   13 1    
    15    1   14 1    
    16    2   15 1    
    17    4   16 1    
    18    6   17 1    
    19    8   18 1    
    20    9   19 1    
    21   12   20 1    
    22    5   21 1    
    23   12   22 1    
    24   13   23 1    
@<TRIPOS>SUBSTRUCTURE
     1 ****        2 TEMP              0 ****  ****    0 ROOT 
@<TRIPOS>NORMAL
@<TRIPOS>FF_PBC
FORCE_FIELD_SETUP_FEATURE Force Field Setup information
v1.0  0 0.000000 0.000000 0.000000 0.000000 0.000000 0.000000 NONE 0 0 0 0 1 0 0 0 0 0 0 0 0
@<TRIPOS>RENDERING_ATTRS
ANTIALIASED_LINES 
1,2,3,4,5,6,7,8,9,10,11,12,13,17,21
