#	Name:			PISM00216
#	Creating user name:	14062
#	Creation time:		Mon Apr 01 21:56:57 2019

#	Modifying user name:	14062
#	Modification time:	Mon Apr 01 21:57:19 2019

@<TRIPOS>MOLECULE
PISM00216
   37    39     1     2     0
SMALL
GAST_HUCK


@<TRIPOS>ATOM
      1 N1         -1.5224    4.5104    5.0279 N.pl3     1 <1>        -0.2884 
      2 C2         -2.8195    4.6082    4.6782 C.ar      1 <1>         0.0606 
      3 C3         -3.0357    3.8951    3.5153 C.ar      1 <1>        -0.0189 
      4 C4         -4.3034    3.7608    2.9504 C.ar      1 <1>        -0.0745 
      5 C5         -5.3532    4.4293    3.5955 C.ar      1 <1>        -0.0792 
      6 C6         -5.1271    5.2133    4.7374 C.ar      1 <1>        -0.0767 
      7 C7         -1.6492    3.4066    3.1689 C.2       1 <1>        -0.0209 
      8 C8         -0.8325    3.8185    4.1544 C.2       1 <1>         0.0197 
      9 C9         -3.8515    5.2983    5.3143 C.ar      1 <1>        -0.0442 
     10 C10        -1.3253    2.6083    1.9281 C.3       1 <1>         0.0913 
     11 C11        -1.7136    1.1706    2.2060 C.2       1 <1>         0.2417 
     12 O12        -2.6647    0.6740    1.6284 O.2       1 <1>        -0.3685 
     13 O13        -1.0316    0.4468    3.1044 O.3       1 <1>        -0.2916 
     14 C14         0.1048    2.8537    1.3417 C.3       1 <1>         0.0469 
     15 C15         1.0485    1.6852    1.4926 C.2       1 <1>         0.1336 
     16 O16         1.2908    1.3134    2.6305 O.2       1 <1>        -0.3802 
     17 C17         1.7024    0.9874    0.3137 C.ar      1 <1>         0.0287 
     18 C18         2.9334    0.3370    0.4693 C.ar      1 <1>        -0.0448 
     19 C19         3.6363   -0.1280   -0.6498 C.ar      1 <1>        -0.0220 
     20 C20         3.0955    0.0347   -1.9304 C.ar      1 <1>         0.1379 
     21 C21         1.8135    0.5689   -2.0782 C.ar      1 <1>        -0.0220 
     22 C22         1.0974    0.9863   -0.9519 C.ar      1 <1>        -0.0448 
     23 F23         3.7942   -0.3200   -3.0033 F         1 <1>        -0.1791 
     24 H1         -1.1240    4.9293    5.8826 H         1 <1>         0.2219 
     25 H2         -4.4686    3.1630    2.0597 H         1 <1>         0.0540 
     26 H3         -6.3624    4.3359    3.2051 H         1 <1>         0.0510 
     27 H4         -5.9513    5.7661    5.1833 H         1 <1>         0.0530 
     28 H5          0.2380    3.6150    4.2267 H         1 <1>         0.0804 
     29 H6         -3.6693    5.8774    6.2136 H         1 <1>         0.0541 
     30 H7         -2.0312    2.9935    1.1732 H         1 <1>         0.0659 
     31 H8         -0.2620    0.8817    3.4643 H         1 <1>         0.2540 
     32 H9          0.5876    3.7121    1.8307 H         1 <1>         0.0527 
     33 H10         0.0521    3.1512    0.2849 H         1 <1>         0.0527 
     34 H11         3.3560    0.1955    1.4613 H         1 <1>         0.0662 
     35 H12         4.6008   -0.6134   -0.5348 H         1 <1>         0.0617 
     36 H13         1.3723    0.6589   -3.0680 H         1 <1>         0.0617 
     37 H14         0.0670    1.3026   -1.0757 H         1 <1>         0.0662 
@<TRIPOS>BOND
     1    8    1 1    
     2    1    2 1    
     3    2    3 ar   
     4    3    7 1    
     5    3    4 ar   
     6    4    5 ar   
     7    5    6 ar   
     8    7    8 2    
     9    6    9 ar   
    10    2    9 ar   
    11    7   10 1    
    12   10   11 1    
    13   11   12 2    
    14   11   13 1    
    15   10   14 1    
    16   14   15 1    
    17   15   16 2    
    18   15   17 1    
    19   17   18 ar   
    20   18   19 ar   
    21   19   20 ar   
    22   20   21 ar   
    23   21   22 ar   
    24   17   22 ar   
    25   20   23 1    
    26    1   24 1    
    27    4   25 1    
    28    5   26 1    
    29    6   27 1    
    30    8   28 1    
    31    9   29 1    
    32   10   30 1    
    33   13   31 1    
    34   14   32 1    
    35   14   33 1    
    36   18   34 1    
    37   19   35 1    
    38   21   36 1    
    39   22   37 1    
@<TRIPOS>SUBSTRUCTURE
     1 ****        7 TEMP              0 ****  ****    0 ROOT 
@<TRIPOS>NORMAL
@<TRIPOS>FF_PBC
FORCE_FIELD_SETUP_FEATURE Force Field Setup information
v1.0  0 0.000000 0.000000 0.000000 0.000000 0.000000 0.000000 NONE 0 0 0 0 1 0 0 0 0 0 0 0 0
@<TRIPOS>RENDERING_ATTRS
ANTIALIASED_LINES 
1,2,3,4,5,6,7,8,9,10,11,12,13,14,15,16,17,18,19,20,21,22,23
