#	Name:			PISM00093
#	Creating user name:	baoopengkun
#	Creation time:		Thu Dec 27 16:34:27 2018

#	Modifying user name:	baoopengkun
#	Modification time:	Thu Dec 27 16:35:40 2018

@<TRIPOS>MOLECULE
PISM00093
   18    18     1     1     0
SMALL
GAST_HUCK


@<TRIPOS>ATOM
      1 C1          0.0924    5.0603  -15.3164 C.ar      1 <1>        -0.0138 
      2 C2         -0.8698    4.0502  -15.4377 C.ar      1 <1>        -0.0497 
      3 C3         -1.5435    3.5655  -14.3128 C.ar      1 <1>        -0.0577 
      4 C4         -1.2588    4.0888  -13.0492 C.ar      1 <1>        -0.0586 
      5 C5         -0.3153    5.1113  -12.9208 C.ar      1 <1>        -0.0577 
      6 C6          0.3410    5.6082  -14.0511 C.ar      1 <1>        -0.0497 
      7 C7          0.8180    5.5205  -16.5659 C.2       1 <1>        -0.0386 
      8 C8          2.0222    6.1094  -16.5696 C.2       1 <1>        -0.0088 
      9 C9          2.6919    6.5535  -17.8080 C.2       1 <1>         0.1131 
     10 O10         2.1617    6.4003  -18.8963 O.2       1 <1>        -0.3698 
     11 H1         -1.0985    3.6305  -16.4123 H         1 <1>         0.0653 
     12 H2         -2.2872    2.7815  -14.4202 H         1 <1>         0.0626 
     13 H3         -1.7692    3.7037  -12.1716 H         1 <1>         0.0644 
     14 H4         -0.0942    5.5221  -11.9401 H         1 <1>         0.0626 
     15 H5          1.0353    6.4305  -13.9256 H         1 <1>         0.0653 
     16 H6          0.3246    5.3504  -17.5236 H         1 <1>         0.0758 
     17 H7          2.5726    6.2821  -15.6471 H         1 <1>         0.0650 
     18 H8          3.6731    7.0267  -17.7684 H         1 <1>         0.1302 
@<TRIPOS>BOND
     1    2    1 ar   
     2    2    3 ar   
     3    3    4 ar   
     4    4    5 ar   
     5    5    6 ar   
     6    1    6 ar   
     7    1    7 1    
     8    7    8 2    
     9    8    9 1    
    10    9   10 2    
    11    2   11 1    
    12    3   12 1    
    13    4   13 1    
    14    5   14 1    
    15    6   15 1    
    16    7   16 1    
    17    8   17 1    
    18    9   18 1    
@<TRIPOS>SUBSTRUCTURE
     1 ****        2 TEMP              0 ****  ****    0 ROOT 
@<TRIPOS>NORMAL
@<TRIPOS>FF_PBC
FORCE_FIELD_SETUP_FEATURE Force Field Setup information
v1.0  0 0.000000 0.000000 0.000000 0.000000 0.000000 0.000000 NONE 0 0 0 0 1 0 0 0 0 0 0 0 0
