#	Name:			PISM01015
#	Creating user name:	malab
#	Creation time:		Mon Jul 01 22:14:48 2019

#	Modifying user name:	malab
#	Modification time:	Mon Jul 01 22:18:53 2019

@<TRIPOS>MOLECULE
PISM01015
   37    39     1     1     0
SMALL
GAST_HUCK


@<TRIPOS>ATOM
      1 C1          5.9169   18.1677   29.5704 C.ar      1 <1>        -0.0088 
      2 C2          5.5242   19.4976   29.3917 C.ar      1 <1>        -0.0413 
      3 C3          5.0020   19.9229   28.1659 C.ar      1 <1>         0.0283 
      4 C4          4.8749   18.9984   27.1245 C.ar      1 <1>        -0.0413 
      5 C5          5.2881   17.6743   27.2984 C.ar      1 <1>        -0.0088 
      6 C6          5.8058   17.2419   28.5257 C.ar      1 <1>         0.0796 
      7 N7          6.1927   15.9498   28.6975 N.pl3     1 <1>        -0.2836 
      8 C8          7.4050   15.6294   29.4509 C.3       1 <1>         0.0560 
      9 C9          7.9708   14.2513   29.0234 C.3       1 <1>         0.0579 
     10 N10         6.9292   13.2451   29.2484 N.am      1 <1>        -0.2389 
     11 C11         5.5291   13.5692   28.9725 C.3       1 <1>         0.0579 
     12 C12         5.4191   14.8555   28.1115 C.3       1 <1>         0.0560 
     13 C13         7.2859   12.0137   29.7152 C.2       1 <1>         0.3534 
     14 O14         8.4744   11.7463   29.8046 O.2       1 <1>        -0.3616 
     15 N15         6.4194   11.1014   30.0803 N.pl3     1 <1>        -0.0704 
     16 N16         5.0690   11.1601   30.1170 N.2       1 <1>        -0.0739 
     17 N17         4.5261   10.0164   30.5647 N.2       1 <1>        -0.2236 
     18 C18         5.6825    9.1985   30.8252 C.2       1 <1>         0.0266 
     19 C19         6.7647    9.9165   30.5135 C.2       1 <1>         0.0968 
     20 H1          6.3031   17.8630   30.5364 H         1 <1>         0.0631 
     21 H2          5.6240   20.2001   30.2135 H         1 <1>         0.0817 
     22 C22         4.5711   21.3794   27.9557 C.3       1 <1>         0.3583 
     23 H3          4.4534   19.3094   26.1733 H         1 <1>         0.0817 
     24 H4          5.2076   16.9876   26.4631 H         1 <1>         0.0631 
     25 H5          7.1603   15.5811   30.5244 H         1 <1>         0.0556 
     26 H6          8.1749   16.4037   29.2928 H         1 <1>         0.0556 
     27 H7          8.8871   14.0723   29.6114 H         1 <1>         0.0544 
     28 H8          8.2439   14.2679   27.9565 H         1 <1>         0.0544 
     29 H9          4.9953   13.7269   29.9239 H         1 <1>         0.0544 
     30 H10         5.0362   12.7697   28.3949 H         1 <1>         0.0544 
     31 H11         4.3538   15.1268   28.0139 H         1 <1>         0.0556 
     32 H12         5.8222   14.6495   27.1064 H         1 <1>         0.0556 
     33 H13         5.6644    8.1788   31.2082 H         1 <1>         0.0560 
     34 H14         7.7790    9.5291   30.6206 H         1 <1>         0.1050 
     35 F35         5.2264   22.2084   28.8126 F         1 <1>        -0.2364 
     36 F36         3.2335   21.4788   28.1757 F         1 <1>        -0.2364 
     37 F37         4.8424   21.7689   26.6807 F         1 <1>        -0.2364 
@<TRIPOS>BOND
     1    2    1 ar   
     2    2    3 ar   
     3    3    4 ar   
     4    4    5 ar   
     5    5    6 ar   
     6    1    6 ar   
     7    6    7 1    
     8    7    8 1    
     9    8    9 1    
    10    9   10 1    
    11   10   11 1    
    12   11   12 1    
    13    7   12 1    
    14   10   13 am   
    15   13   14 2    
    16   13   15 1    
    17   15   16 1    
    18   16   17 2    
    19   17   18 1    
    20   18   19 2    
    21   15   19 1    
    22    1   20 1    
    23    2   21 1    
    24    3   22 1    
    25    4   23 1    
    26    5   24 1    
    27    8   25 1    
    28    8   26 1    
    29    9   27 1    
    30    9   28 1    
    31   11   29 1    
    32   11   30 1    
    33   12   31 1    
    34   12   32 1    
    35   18   33 1    
    36   19   34 1    
    37   22   35 1    
    38   22   36 1    
    39   22   37 1    
@<TRIPOS>SUBSTRUCTURE
     1 ****        2 TEMP              0 ****  ****    0 ROOT 
@<TRIPOS>NORMAL
@<TRIPOS>FF_PBC
FORCE_FIELD_SETUP_FEATURE Force Field Setup information
v1.0  0 0.000000 0.000000 0.000000 0.000000 0.000000 0.000000 NONE 0 0 0 0 1 0 0 0 0 0 0 0 0
