#	Name:			PISM00865
#	Creating user name:	baoopengkun
#	Creation time:		Thu Dec 13 23:15:37 2018

#	Modifying user name:	baoopengkun
#	Modification time:	Thu Dec 13 23:27:51 2018

@<TRIPOS>MOLECULE
PISM00865
   26    27     1     1     0
SMALL
GAST_HUCK


@<TRIPOS>ATOM
      1 N1          0.2238    1.5916    1.7746 N.pl3     1 <1>         0.1190 
      2 C2         -2.0397    2.2819    2.1489 C.ar      1 <1>        -0.0425 
      3 C3         -3.3087    2.5980    1.6558 C.ar      1 <1>        -0.0821 
      4 C4         -3.5577    2.5405    0.2832 C.ar      1 <1>        -0.0747 
      5 C5         -2.5292    2.1833   -0.5914 C.ar      1 <1>         0.0300 
      6 C6         -1.2512    1.8994   -0.0992 C.ar      1 <1>         0.1333 
      7 C7         -1.0001    1.9181    1.2811 C.ar      1 <1>         0.1633 
      8 Br8        -2.8622    2.0875   -2.4121 Br        1 <1>        -0.0621 
      9 O9         -0.2312    1.6029   -1.0036 O.3       1 <1>        -0.2743 
     10 C10         0.5800    2.7383   -1.3318 C.3       1 <1>         0.2340 
     11 O11        -0.2446    3.7989   -1.8547 O.3       1 <1>        -0.2316 
     12 C12         0.1213    3.9318   -3.1231 C.2       1 <1>         0.2494 
     13 C13         1.2031    3.0557   -3.5593 C.2       1 <1>         0.0291 
     14 C14         1.4839    2.3410   -2.4716 C.2       1 <1>        -0.0022 
     15 C15         1.8460    2.9731   -4.9166 C.3       1 <1>        -0.0323 
     16 O16        -0.4098    4.7401   -3.8650 O.2       1 <1>        -0.3691 
     17 H1         -1.8762    2.3196    3.2213 H         1 <1>         0.0505 
     18 H2         -4.1023    2.8865    2.3389 H         1 <1>         0.0496 
     19 H3         -4.5457    2.7729   -0.1020 H         1 <1>         0.0501 
     20 H4          1.1650    3.1016   -0.4709 H         1 <1>         0.1195 
     21 H5          2.2510    1.5703   -2.4093 H         1 <1>         0.0705 
     22 H6          1.9049    1.9233   -5.2408 H         1 <1>         0.0347 
     23 H7          2.8612    3.3940   -4.8687 H         1 <1>         0.0347 
     24 H8          1.2572    3.5407   -5.6528 H         1 <1>         0.0347 
     25 O25         0.9709    0.9388    1.0797 O.2       1 <1>        -0.1158 
     26 O26         0.5038    1.9643    2.8932 O.2       1 <1>        -0.1158 
@<TRIPOS>BOND
     1    7    1 1    
     2    3    2 ar   
     3    4    3 ar   
     4    5    4 ar   
     5    6    5 ar   
     6    6    7 ar   
     7    2    7 ar   
     8    5    8 1    
     9    6    9 1    
    10    9   10 1    
    11   10   11 1    
    12   11   12 1    
    13   12   13 1    
    14   13   14 2    
    15   10   14 1    
    16   13   15 1    
    17   12   16 2    
    18    2   17 1    
    19    3   18 1    
    20    4   19 1    
    21   10   20 1    
    22   14   21 1    
    23   15   22 1    
    24   15   23 1    
    25   15   24 1    
    26    1   25 2    
    27    1   26 2    
@<TRIPOS>SUBSTRUCTURE
     1 ****        2 TEMP              0 ****  ****    0 ROOT 
@<TRIPOS>NORMAL
@<TRIPOS>FF_PBC
FORCE_FIELD_SETUP_FEATURE Force Field Setup information
v1.0  0 0.000000 0.000000 0.000000 0.000000 0.000000 0.000000 NONE 0 0 0 0 1 0 0 0 0 0 0 0 0
