#	Name:			PISM01005
#	Creating user name:	malab
#	Creation time:		Mon Jul 01 21:55:25 2019

#	Modifying user name:	malab
#	Modification time:	Mon Jul 01 21:59:57 2019

@<TRIPOS>MOLECULE
PISM01005
   53    55     1     2     0
SMALL
GAST_HUCK


@<TRIPOS>ATOM
      1 C1         17.1770    8.7277   24.8831 C.3       1 <1>        -0.0652 
      2 C2         16.8108   10.1308   25.4329 C.3       1 <1>        -0.0535 
      3 C3         16.3000   11.0631   24.3008 C.3       1 <1>        -0.0253 
      4 C4         15.9348   12.4685   24.8397 C.3       1 <1>         0.0704 
      5 O5         15.4711   13.2693   23.7400 O.3       1 <1>        -0.3180 
      6 C6         15.1141   14.5666   24.1021 C.ar      1 <1>         0.0912 
      7 C7         16.0772   15.5785   24.1141 C.ar      1 <1>        -0.0313 
      8 C8         15.7255   16.8732   24.5065 C.ar      1 <1>        -0.0440 
      9 C9         14.4107   17.1560   24.8893 C.ar      1 <1>         0.0971 
     10 C10        13.4413   16.1499   24.8435 C.ar      1 <1>        -0.0440 
     11 C11        13.7930   14.8546   24.4534 C.ar      1 <1>        -0.0313 
     12 S12        13.9756   18.7670   25.4930 S.o2      1 <1>         0.0658 
     13 O13        12.5907   19.0358   25.1590 O.2       1 <1>        -0.1515 
     14 O14        14.9977   19.7183   25.1025 O.2       1 <1>        -0.1515 
     15 N15        14.1205   18.4504   27.1296 N.am      1 <1>        -0.2314 
     16 C16        12.9504   18.1644   27.9519 C.3       1 <1>         0.0499 
     17 C17        13.1059   16.7352   28.5281 C.3       1 <1>         0.0529 
     18 N18        14.4527   16.6113   29.0972 N.am      1 <1>        -0.2455 
     19 C19        15.6179   16.9178   28.2632 C.3       1 <1>         0.0529 
     20 C20        15.4489   18.3577   27.7229 C.3       1 <1>         0.0499 
     21 C21        14.6412   16.2094   30.3820 C.2       1 <1>         0.3278 
     22 O22        15.7468   16.0863   30.8844 O.2       1 <1>        -0.3772 
     23 C23        13.7996   15.6307   32.4651 C.3       1 <1>         0.2523 
     24 C24        12.4764   15.3346   33.1259 C.2       1 <1>         0.0067 
     25 C25        12.1946   16.2272   34.0731 C.2       1 <1>         0.0150 
     26 C26        13.3524   17.1121   34.0357 C.2       1 <1>         0.2395 
     27 O27        14.2904   16.8002   33.1506 O.3       1 <1>        -0.2294 
     28 O28        13.4565   18.0763   34.7737 O.2       1 <1>        -0.3742 
     29 H1         17.5359    8.0819   25.7002 H         1 <1>         0.0230 
     30 O30        13.5357   15.9379   31.0868 O.3       1 <1>        -0.2096 
     31 H2         17.9719    8.8075   24.1252 H         1 <1>         0.0230 
     32 H3         16.2961    8.2532   24.4231 H         1 <1>         0.0230 
     33 H4         17.7023   10.5768   25.9049 H         1 <1>         0.0263 
     34 H5         16.0292   10.0234   26.2036 H         1 <1>         0.0263 
     35 H6         15.4067   10.6217   23.8291 H         1 <1>         0.0291 
     36 H7         17.0788   11.1723   23.5282 H         1 <1>         0.0291 
     37 H8         16.8231   12.9335   25.2986 H         1 <1>         0.0614 
     38 H9         15.1429   12.3817   25.6022 H         1 <1>         0.0614 
     39 H10        17.0967   15.3532   23.8186 H         1 <1>         0.0542 
     40 H11        16.4749   17.6573   24.5152 H         1 <1>         0.0608 
     41 H12        12.4153   16.3758   25.1139 H         1 <1>         0.0608 
     42 H13        13.0454   14.0689   24.4223 H         1 <1>         0.0542 
     43 H14        12.0066   18.2439   27.3907 H         1 <1>         0.0498 
     44 H15        12.9172   18.8885   28.7815 H         1 <1>         0.0498 
     45 H16        13.0151   16.0071   27.7069 H         1 <1>         0.0538 
     46 H17        12.2772   16.5488   29.2294 H         1 <1>         0.0538 
     47 H18        15.6376   16.2134   27.4164 H         1 <1>         0.0538 
     48 H19        16.5856   16.8422   28.7858 H         1 <1>         0.0538 
     49 H20        16.2482   18.5899   27.0017 H         1 <1>         0.0498 
     50 H21        15.5211   19.0728   28.5577 H         1 <1>         0.0498 
     51 H22        14.4865   14.7764   32.5960 H         1 <1>         0.1251 
     52 H23        11.8332   14.4981   32.8549 H         1 <1>         0.0912 
     53 H24        11.3220   16.2915   34.7217 H         1 <1>         0.0486 
@<TRIPOS>BOND
     1    2    1 1    
     2    3    2 1    
     3    4    3 1    
     4    5    4 1    
     5    6    5 1    
     6    7    6 ar   
     7    8    7 ar   
     8    9    8 ar   
     9    9   10 ar   
    10   10   11 ar   
    11   11    6 ar   
    12   12    9 1    
    13   12   13 2    
    14   12   14 2    
    15   15   12 1    
    16   16   15 1    
    17   17   16 1    
    18   18   17 1    
    19   18   19 1    
    20   19   20 1    
    21   20   15 1    
    22   21   18 am   
    23   21   22 2    
    24   30   21 1    
    25   23   24 1    
    26   24   25 2    
    27   26   25 1    
    28   27   26 1    
    29   23   27 1    
    30   26   28 2    
    31    1   29 1    
    32   23   30 1    
    33    1   31 1    
    34    1   32 1    
    35    2   33 1    
    36    2   34 1    
    37    3   35 1    
    38    3   36 1    
    39    4   37 1    
    40    4   38 1    
    41    7   39 1    
    42    8   40 1    
    43   10   41 1    
    44   11   42 1    
    45   16   43 1    
    46   16   44 1    
    47   17   45 1    
    48   17   46 1    
    49   19   47 1    
    50   19   48 1    
    51   20   49 1    
    52   20   50 1    
    53   23   51 1    
    54   24   52 1    
    55   25   53 1    
@<TRIPOS>SUBSTRUCTURE
     1 ****       23 TEMP              0 ****  ****    0 ROOT 
@<TRIPOS>NORMAL
@<TRIPOS>FF_PBC
FORCE_FIELD_SETUP_FEATURE Force Field Setup information
v1.0  0 0.000000 0.000000 0.000000 0.000000 0.000000 0.000000 NONE 0 0 0 0 1 0 0 0 0 0 0 0 0
@<TRIPOS>RENDERING_ATTRS
ANTIALIASED_LINES 
*
