#	Name:			PISM00694
#	Creating user name:	baoopengkun
#	Creation time:		Sat Dec 08 17:21:43 2018

#	Modifying user name:	baoopengkun
#	Modification time:	Sat Dec 08 17:22:10 2018

@<TRIPOS>MOLECULE
PISM00694
   36    38     3     2     0
SMALL
GAST_HUCK


@<TRIPOS>ATOM
      1 C1         25.9511   32.8541  -10.5405 C.3       1 PHENYL      0.0657 
      2 C          25.3477   32.6496  -11.9458 C.ar      1 PHENYL     -0.0577 
      3 C          26.1586   32.2061  -12.9979 C.ar      1 PHENYL     -0.0543 
      4 C          25.6488   32.0969  -14.2948 C.ar      1 PHENYL     -0.0435 
      5 C          24.3076   32.3973  -14.5456 C.ar      1 PHENYL     -0.0438 
      6 C          23.4757   32.7814  -13.4908 C.ar      1 PHENYL     -0.0435 
      7 C          23.9894   32.8840  -12.1947 C.ar      1 PHENYL     -0.0543 
      8 C          27.3825   33.4240  -10.5395 C.ar      2 PHENYL     -0.0577 
      9 C          28.2671   33.0629   -9.5162 C.ar      2 PHENYL     -0.0543 
     10 C          29.5798   33.5432   -9.5047 C.ar      2 PHENYL     -0.0435 
     11 C          30.0170   34.4057  -10.5131 C.ar      2 PHENYL     -0.0438 
     12 C          29.1346   34.7906  -11.5256 C.ar      2 PHENYL     -0.0435 
     13 C          27.8231   34.3067  -11.5342 C.ar      2 PHENYL     -0.0543 
     14 C          25.1525   33.8481   -9.6786 C.ar      3 PHENYL     -0.0571 
     15 C          24.7635   33.5230   -8.3732 C.ar      3 PHENYL     -0.0538 
     16 C          24.0368   34.4338   -7.6010 C.ar      3 PHENYL     -0.0288 
     17 C          23.6984   35.6845   -8.1232 C.ar      3 PHENYL      0.0746 
     18 C          24.0869   36.0195   -9.4232 C.ar      3 PHENYL      0.0726 
     19 C          24.8079   35.1035  -10.1936 C.ar      3 PHENYL     -0.0399 
     20 O20        25.9291   31.5511   -9.9311 O.3       1 PHENYL     -0.4529 
     21 Cl21       22.7910   36.8211   -7.1457 Cl        3 PHENYL     -0.0513 
     22 H1         27.1943   31.9398  -12.8122 H         1 PHENYL      0.0760 
     23 H2         26.2948   31.7779  -15.1073 H         1 PHENYL      0.0669 
     24 H3         23.9130   32.3297  -15.5549 H         1 PHENYL      0.0771 
     25 H4         22.4283   32.9985  -13.6781 H         1 PHENYL      0.0669 
     26 H5         23.3176   33.1419  -11.3830 H         1 PHENYL      0.0760 
     27 H27        27.9357   32.4063   -8.7180 H         2 PHENYL      0.0760 
     28 H7         30.2593   33.2468   -8.7114 H         2 PHENYL      0.0669 
     29 H29        31.0378   34.7759  -10.5092 H         2 PHENYL      0.0771 
     30 H9         29.4684   35.4671  -12.3067 H         2 PHENYL      0.0669 
     31 H10        27.1528   34.6275  -12.3239 H         2 PHENYL      0.0760 
     32 H11        25.0239   32.5606   -7.9452 H         3 PHENYL      0.0761 
     33 H12        23.7341   34.1709   -6.5926 H         3 PHENYL      0.0674 
     34 Cl34       23.6742   37.5841  -10.0957 Cl        3 PHENYL     -0.0649 
     35 H35        25.0960   35.3787  -11.2011 H         3 PHENYL      0.0765 
     36 H15        26.4533   30.9161  -10.4077 H         1 PHENYL      0.1841 
@<TRIPOS>BOND
     1    2    3 ar   
     2    2    7 ar   
     3    7    6 ar   
     4    6    5 ar   
     5    5    4 ar   
     6    4    3 ar   
     7    2    1 1    
     8    8    9 ar   
     9    8   13 ar   
    10   13   12 ar   
    11   12   11 ar   
    12   11   10 ar   
    13   10    9 ar   
    14    1    8 1    
    15   14   15 ar   
    16   14   19 ar   
    17   19   18 ar   
    18   18   17 ar   
    19   17   16 ar   
    20   16   15 ar   
    21    1   14 1    
    22    1   20 1    
    23   17   21 1    
    24    3   22 1    
    25    4   23 1    
    26    5   24 1    
    27    6   25 1    
    28    7   26 1    
    29    9   27 1    
    30   10   28 1    
    31   11   29 1    
    32   12   30 1    
    33   13   31 1    
    34   15   32 1    
    35   16   33 1    
    36   18   34 1    
    37   19   35 1    
    38   20   36 1    
@<TRIPOS>SUBSTRUCTURE
     1 PHENYL      2 PERM              0 ****  ****    2 ROOT 
     2 PHENYL      8 PERM              0 ****  ****    1  
     3 PHENYL     14 PERM              0 ****  ****    1  
@<TRIPOS>NORMAL
@<TRIPOS>FF_PBC
FORCE_FIELD_SETUP_FEATURE Force Field Setup information
v1.0  0 0.000000 0.000000 0.000000 0.000000 0.000000 0.000000 NONE 0 0 0 0 1 0 0 0 0 0 0 0 0
@<TRIPOS>RENDERING_ATTRS
ANTIALIASED_LINES 
*
