#	Name:			PISM00915.1
#	Creating user name:	baoopengkun
#	Creation time:		Fri Dec 14 10:31:16 2018

#	Modifying user name:	baoopengkun
#	Modification time:	Fri Dec 14 10:48:40 2018

@<TRIPOS>MOLECULE
PISM00915.1
   43    45     1     1     0
SMALL
GAST_HUCK


@<TRIPOS>ATOM
      1 C1         26.1093   16.4954  -14.8271 C.ar      1 <1>         0.0873 
      2 C2         27.2717   17.2461  -14.6104 C.ar      1 <1>        -0.0294 
      3 C3         27.9474   17.1982  -13.3811 C.ar      1 <1>        -0.0620 
      4 C4         27.4829   16.3940  -12.3322 C.ar      1 <1>        -0.0488 
      5 C5         26.3336   15.6396  -12.5652 C.ar      1 <1>         0.0636 
      6 C6         25.6690   15.6832  -13.7822 C.ar      1 <1>         0.0945 
      7 C7         24.5088   14.7297  -13.6457 C.2       1 <1>         0.2371 
      8 N8         24.5106   14.1877  -12.4127 N.am      1 <1>        -0.1423 
      9 C9         25.5508   14.6743  -11.7101 C.2       1 <1>         0.2414 
     10 O10        23.7053   14.5042  -14.5338 O.2       1 <1>        -0.3740 
     11 O11        25.8345   14.3912  -10.5592 O.2       1 <1>        -0.3670 
     12 C12        23.5079   13.2717  -11.8993 C.3       1 <1>         0.2213 
     13 O13        22.3091   14.0296  -11.6427 O.3       1 <1>        -0.2348 
     14 C14        21.4065   13.5534  -12.4916 C.2       1 <1>         0.2491 
     15 C15        21.8579   12.4519  -13.3350 C.2       1 <1>         0.0288 
     16 C16        23.1233   12.2699  -12.9620 C.2       1 <1>        -0.0059 
     17 C17        21.0756   11.6932  -14.3712 C.3       1 <1>        -0.0323 
     18 O18        20.2758   14.0056  -12.5483 O.2       1 <1>        -0.3691 
     19 N19        25.4499   16.5577  -16.0065 N.pl3     1 <1>        -0.2340 
     20 C20        24.3017   17.1647  -16.1385 C.2       1 <1>         0.2025 
     21 C21        23.6295   17.8476  -14.9669 C.3       1 <1>         0.0430 
     22 O22        23.7559   17.1973  -17.2288 O.2       1 <1>        -0.3787 
     23 C23        22.3909   18.6841  -15.3901 C.3       1 <1>        -0.0356 
     24 C24        21.7314   19.3798  -14.1677 C.3       1 <1>        -0.0538 
     25 C25        20.4942   20.2128  -14.5929 C.3       1 <1>        -0.0651 
     26 H1         27.6517   17.8764  -15.4081 H         1 <1>         0.0578 
     27 H2         28.8444   17.7937  -13.2390 H         1 <1>         0.0632 
     28 H3         27.9916   16.3532  -11.3745 H         1 <1>         0.0584 
     29 H4         23.8392   12.7634  -10.9784 H         1 <1>         0.1152 
     30 H5         23.7931   11.5155  -13.3726 H         1 <1>         0.0702 
     31 H6         21.3663   12.0436  -15.3728 H         1 <1>         0.0347 
     32 H7         19.9972   11.8613  -14.2318 H         1 <1>         0.0347 
     33 H8         21.2823   10.6156  -14.2908 H         1 <1>         0.0347 
     34 H9         25.8771   16.1256  -16.8395 H         1 <1>         0.2134 
     35 H10        24.3587   18.5105  -14.4758 H         1 <1>         0.0511 
     36 H11        23.3007   17.0861  -14.2456 H         1 <1>         0.0511 
     37 H12        21.6530   18.0219  -15.8732 H         1 <1>         0.0290 
     38 H13        22.7031   19.4470  -16.1225 H         1 <1>         0.0290 
     39 H14        22.4633   20.0461  -13.6813 H         1 <1>         0.0264 
     40 H15        21.4168   18.6183  -13.4344 H         1 <1>         0.0264 
     41 H16        20.7858   20.9957  -15.3105 H         1 <1>         0.0230 
     42 H17        20.0416   20.6959  -13.7124 H         1 <1>         0.0230 
     43 H18        19.7382   19.5652  -15.0638 H         1 <1>         0.0230 
@<TRIPOS>BOND
     1    2    1 ar   
     2    2    3 ar   
     3    3    4 ar   
     4    4    5 ar   
     5    6    5 ar   
     6    1    6 ar   
     7    6    7 1    
     8    7    8 am   
     9    9    8 am   
    10    5    9 1    
    11    7   10 2    
    12    9   11 2    
    13    8   12 1    
    14   12   13 1    
    15   13   14 1    
    16   15   14 1    
    17   16   15 2    
    18   12   16 1    
    19   15   17 1    
    20   14   18 2    
    21    1   19 1    
    22   19   20 1    
    23   20   21 1    
    24   20   22 2    
    25   21   23 1    
    26   23   24 1    
    27   24   25 1    
    28    2   26 1    
    29    3   27 1    
    30    4   28 1    
    31   12   29 1    
    32   16   30 1    
    33   17   31 1    
    34   17   32 1    
    35   17   33 1    
    36   19   34 1    
    37   21   35 1    
    38   21   36 1    
    39   23   37 1    
    40   23   38 1    
    41   24   39 1    
    42   24   40 1    
    43   25   41 1    
    44   25   42 1    
    45   25   43 1    
@<TRIPOS>SUBSTRUCTURE
     1 ****        2 TEMP              0 ****  ****    0 ROOT 
@<TRIPOS>NORMAL
@<TRIPOS>FF_PBC
FORCE_FIELD_SETUP_FEATURE Force Field Setup information
v1.0  0 0.000000 0.000000 0.000000 0.000000 0.000000 0.000000 NONE 0 0 0 0 1 0 0 0 0 0 0 0 0
