#	Name:			PISM00735
#	Creating user name:	baoopengkun
#	Creation time:		Sun Jan 20 22:20:31 2019

#	Modifying user name:	baoopengkun
#	Modification time:	Sun Jan 20 22:21:56 2019

@<TRIPOS>MOLECULE
PISM00735
   85    88     1     1     0
SMALL
GAST_HUCK


@<TRIPOS>ATOM
      1 C1          0.1141    0.4148    1.7579 C.3       1 <1>        -0.0163 
      2 C2         -0.4912   -0.9682    2.1279 C.3       1 <1>         0.0819 
      3 C3          0.4527   -1.7585    3.0772 C.3       1 <1>         0.0835 
      4 C4          0.7821   -0.9166    4.3404 C.3       1 <1>        -0.0028 
      5 C5          1.4350    0.4255    3.9030 C.3       1 <1>         0.0681 
      6 C6          0.5045    1.2964    2.9884 C.3       1 <1>        -0.0055 
      7 C7          1.2530    2.6227    2.5570 C.3       1 <1>        -0.0276 
      8 C8          2.7876    2.4335    2.3175 C.3       1 <1>        -0.0063 
      9 C9          3.5570    2.3259    3.6804 C.3       1 <1>         0.0801 
     10 O10         2.7895    2.2596    4.9078 O.3       1 <1>        -0.2763 
     11 C11         1.9040    1.2592    5.0679 C.2       1 <1>         0.2374 
     12 O12         1.4589    1.0428    6.1818 O.2       1 <1>        -0.3701 
     13 C13         0.6159    3.3830    1.3538 C.3       1 <1>        -0.0487 
     14 C14         1.2105    4.8213    1.1990 C.3       1 <1>        -0.0468 
     15 C15         2.7680    4.9173    1.3832 C.3       1 <1>        -0.0257 
     16 C16         3.3369    3.4752    1.2806 C.3       1 <1>        -0.0298 
     17 C17         4.8653    3.6375    1.0911 C.3       1 <1>        -0.0491 
     18 C18         4.9812    4.9796    0.3084 C.3       1 <1>        -0.0491 
     19 C19         3.5448    5.5868    0.1923 C.3       1 <1>        -0.0303 
     20 O20        -0.7065   -1.6826    0.8950 O.3       1 <1>        -0.3892 
     21 O21         1.6607   -2.0820    2.3630 O.3       1 <1>        -0.3891 
     22 C22         6.9738    9.4140   -1.8368 C.3       1 <1>        -0.0417 
     23 C23        -0.7934    1.7158    3.7674 C.3       1 <1>        -0.0568 
     24 C24         3.1409    5.6052    2.7364 C.3       1 <1>        -0.0590 
     25 C25         3.5527    7.1514    0.0330 C.3       1 <1>        -0.0118 
     26 C26         4.3275    7.5637   -1.2731 C.3       1 <1>         0.0872 
     27 C27         4.3739    9.1159   -1.4887 C.3       1 <1>         0.0843 
     28 C28         5.5228    9.7563   -2.3510 C.3       1 <1>        -0.0130 
     29 C29         4.4133    6.4667   -3.4692 C.3       1 <1>         0.0369 
     30 C30         7.9843   10.6034   -1.8530 C.3       1 <1>        -0.0623 
     31 C31         7.6274    8.2658   -2.6669 C.3       1 <1>        -0.0623 
     32 C32         2.1154    7.7521    0.0322 C.3       1 <1>        -0.0597 
     33 O33         3.6148    6.9141   -2.3581 O.3       1 <1>        -0.3769 
     34 O34         3.1089    9.5137   -2.0473 O.3       1 <1>        -0.3889 
     35 C35         5.2377   11.2918   -2.4304 C.3       1 <1>        -0.0597 
     36 H1         -0.6295    0.9349    1.1346 H         1 <1>         0.0298 
     37 H2          1.0010    0.2260    1.1349 H         1 <1>         0.0298 
     38 H3         -1.4736   -0.8419    2.6109 H         1 <1>         0.0619 
     39 H4         -0.0512   -2.6959    3.3732 H         1 <1>         0.0621 
     40 H5          1.4943   -1.4814    4.9660 H         1 <1>         0.0319 
     41 H6         -0.1162   -0.7670    4.9556 H         1 <1>         0.0319 
     42 H7          2.3324    0.0752    3.3804 H         1 <1>         0.0560 
     43 H8          1.1572    3.3352    3.3897 H         1 <1>         0.0311 
     44 H9          2.9430    1.4810    1.7840 H         1 <1>         0.0332 
     45 H10         4.1316    3.2405    3.8602 H         1 <1>         0.0616 
     46 H11         4.2909    1.5023    3.6606 H         1 <1>         0.0616 
     47 H12        -0.4725    3.4978    1.4662 H         1 <1>         0.0268 
     48 H13         0.7680    2.8014    0.4310 H         1 <1>         0.0268 
     49 H14         0.7154    5.4618    1.9473 H         1 <1>         0.0271 
     50 H15         0.9034    5.1838    0.2056 H         1 <1>         0.0271 
     51 H16         3.0208    3.1062    0.2855 H         1 <1>         0.0310 
     52 H17         5.2994    2.7845    0.5411 H         1 <1>         0.0268 
     53 H18         5.4092    3.7132    2.0434 H         1 <1>         0.0268 
     54 H19         5.4185    4.8014   -0.6879 H         1 <1>         0.0268 
     55 H20         5.6517    5.6652    0.8530 H         1 <1>         0.0268 
     56 H21         3.0966    5.1907   -0.7342 H         1 <1>         0.0310 
     57 H22        -1.0614   -2.5572    1.0194 H         1 <1>         0.2099 
     58 H23         2.2700   -2.6142    2.8659 H         1 <1>         0.2099 
     59 H24         6.9059    9.0940   -0.7829 H         1 <1>         0.0299 
     60 H25        -1.4574    2.3291    3.1440 H         1 <1>         0.0237 
     61 H26        -0.5418    2.3060    4.6623 H         1 <1>         0.0237 
     62 H27        -1.4073    0.8776    4.1131 H         1 <1>         0.0237 
     63 H28         2.7838    6.6429    2.7608 H         1 <1>         0.0235 
     64 H29         4.2253    5.6327    2.9071 H         1 <1>         0.0235 
     65 H30         2.6755    5.0970    3.5897 H         1 <1>         0.0235 
     66 H31         4.0844    7.5794    0.8999 H         1 <1>         0.0327 
     67 H32         5.3476    7.1852   -1.1409 H         1 <1>         0.0624 
     68 H33         4.4631    9.5884   -0.4973 H         1 <1>         0.0622 
     69 H34         5.4283    9.4213   -3.3941 H         1 <1>         0.0326 
     70 H35         3.7301    5.9751   -4.1771 H         1 <1>         0.0524 
     71 H36         5.1569    5.7220   -3.1481 H         1 <1>         0.0524 
     72 H37         4.9121    7.2827   -4.0036 H         1 <1>         0.0524 
     73 H38         8.9626   10.2806   -1.4634 H         1 <1>         0.0232 
     74 H39         7.6520   11.4374   -1.2173 H         1 <1>         0.0232 
     75 H40         8.1455   10.9729   -2.8770 H         1 <1>         0.0232 
     76 H41         7.0265    7.3508   -2.6768 H         1 <1>         0.0232 
     77 H42         8.6142    7.9997   -2.2574 H         1 <1>         0.0232 
     78 H43         7.7682    8.5853   -3.7112 H         1 <1>         0.0232 
     79 H44         1.5625    7.4261   -0.8615 H         1 <1>         0.0233 
     80 H45         2.1377    8.8508    0.0522 H         1 <1>         0.0233 
     81 H46         1.5453    7.4601    0.9196 H         1 <1>         0.0233 
     82 H47         2.9407    9.0606   -2.8684 H         1 <1>         0.2099 
     83 H48         4.2332   11.4945   -2.8337 H         1 <1>         0.0233 
     84 H49         5.9417   11.8064   -3.1013 H         1 <1>         0.0233 
     85 H50         5.2905   11.7529   -1.4322 H         1 <1>         0.0233 
@<TRIPOS>BOND
     1    1    2 1    
     2    2    3 1    
     3    4    3 1    
     4    5    4 1    
     5    6    5 1    
     6    6    1 1    
     7    7    6 1    
     8    8    7 1    
     9    8    9 1    
    10    9   10 1    
    11   10   11 1    
    12   11   12 2    
    13   11    5 1    
    14   13    7 1    
    15   14   13 1    
    16   15   14 1    
    17   15   16 1    
    18   16    8 1    
    19   16   17 1    
    20   18   17 1    
    21   19   18 1    
    22   19   15 1    
    23    2   20 1    
    24    3   21 1    
    25   28   22 1    
    26    6   23 1    
    27   15   24 1    
    28   25   19 1    
    29   26   25 1    
    30   27   26 1    
    31   27   28 1    
    32   33   29 1    
    33   22   30 1    
    34   22   31 1    
    35   25   32 1    
    36   26   33 1    
    37   27   34 1    
    38   28   35 1    
    39    1   36 1    
    40    1   37 1    
    41    2   38 1    
    42    3   39 1    
    43    4   40 1    
    44    4   41 1    
    45    5   42 1    
    46    7   43 1    
    47    8   44 1    
    48    9   45 1    
    49    9   46 1    
    50   13   47 1    
    51   13   48 1    
    52   14   49 1    
    53   14   50 1    
    54   16   51 1    
    55   17   52 1    
    56   17   53 1    
    57   18   54 1    
    58   18   55 1    
    59   19   56 1    
    60   20   57 1    
    61   21   58 1    
    62   22   59 1    
    63   23   60 1    
    64   23   61 1    
    65   23   62 1    
    66   24   63 1    
    67   24   64 1    
    68   24   65 1    
    69   25   66 1    
    70   26   67 1    
    71   27   68 1    
    72   28   69 1    
    73   29   70 1    
    74   29   71 1    
    75   29   72 1    
    76   30   73 1    
    77   30   74 1    
    78   30   75 1    
    79   31   76 1    
    80   31   77 1    
    81   31   78 1    
    82   32   79 1    
    83   32   80 1    
    84   32   81 1    
    85   34   82 1    
    86   35   83 1    
    87   35   84 1    
    88   35   85 1    
@<TRIPOS>SUBSTRUCTURE
     1 ****        2 TEMP              0 ****  ****    0 ROOT 
@<TRIPOS>NORMAL
@<TRIPOS>FF_PBC
FORCE_FIELD_SETUP_FEATURE Force Field Setup information
v1.0  0 0.000000 0.000000 0.000000 0.000000 0.000000 0.000000 NONE 0 0 0 0 1 0 0 0 0 0 0 0 0
