#	Name:			PISM01114
#	Creating user name:	Qinrunwen
#	Creation time:		Tue Apr 02 20:49:29 2019

#	Modifying user name:	Qinrunwen
#	Modification time:	Tue Apr 02 20:53:03 2019

@<TRIPOS>MOLECULE
PISM01114
   47    49     1     1     0
SMALL
GAST_HUCK


@<TRIPOS>ATOM
      1 C1         16.0576    7.1411   -3.6815 C.ar      1 <1>        -0.0154 
      2 C2         15.9729    6.2858   -2.5734 C.ar      1 <1>         0.0713 
      3 C3         15.6184    6.8062   -1.3151 C.ar      1 <1>        -0.0313 
      4 C4         15.3266    8.1659   -1.1363 C.ar      1 <1>        -0.0310 
      5 C5         15.4313    8.9953   -2.2521 C.ar      1 <1>         0.0827 
      6 C6         15.7683    8.4917   -3.4932 C.ar      1 <1>         0.0841 
      7 C7         16.2834    4.8156   -2.7851 C.2       1 <1>         0.2645 
      8 O8         15.8107    3.8218   -2.0297 O.3       1 <1>        -0.2929 
      9 O9         17.0103    4.5092   -3.7129 O.2       1 <1>        -0.3552 
     10 C10        15.7320    9.6742   -4.4260 C.2       1 <1>         0.2615 
     11 N11        15.4369   10.7397   -3.7247 N.pl3     1 <1>        -0.1339 
     12 C12        15.2470   10.4774   -2.4568 C.2       1 <1>         0.2633 
     13 O13        14.9771   11.2493   -1.5529 O.2       1 <1>        -0.3517 
     14 O14        15.9447    9.5860   -5.6235 O.2       1 <1>        -0.3534 
     15 C15        15.3392   11.9855   -4.2563 C.ar      1 <1>         0.0924 
     16 C16        16.2287   12.4106   -5.2529 C.ar      1 <1>        -0.0294 
     17 C17        16.0800   13.6638   -5.8545 C.ar      1 <1>        -0.0496 
     18 C18        15.0915   14.5470   -5.4112 C.ar      1 <1>         0.0503 
     19 C19        14.2860   14.1749   -4.3304 C.ar      1 <1>        -0.0496 
     20 C20        14.3498   12.8754   -3.8184 C.ar      1 <1>        -0.0294 
     21 C21        14.9393   15.8884   -6.0982 C.2       1 <1>         0.2545 
     22 O22        13.8156   16.3553   -6.6610 O.3       1 <1>        -0.2791 
     23 C23        12.7113   15.4413   -6.7700 C.3       1 <1>         0.0757 
     24 C24        11.5560   16.1726   -7.5028 C.3       1 <1>        -0.0228 
     25 C25        10.9675   17.4173   -6.7653 C.3       1 <1>        -0.0443 
     26 C26        10.2591   17.0510   -5.4314 C.3       1 <1>        -0.0626 
     27 C27        12.0115   18.5419   -6.5195 C.3       1 <1>        -0.0626 
     28 O28        15.9227   16.6078   -6.1561 O.2       1 <1>        -0.3625 
     29 H1         16.3401    6.7778   -4.6636 H         1 <1>         0.0738 
     30 H2         15.5746    6.1591   -0.4465 H         1 <1>         0.0715 
     31 H3         15.0341    8.5697   -0.1700 H         1 <1>         0.0693 
     32 H4         15.1739    4.0787   -1.3779 H         1 <1>         0.2524 
     33 H5         17.0496   11.7729   -5.5648 H         1 <1>         0.0554 
     34 H6         16.7414   13.9536   -6.6689 H         1 <1>         0.0644 
     35 H7         13.6174   14.9003   -3.8769 H         1 <1>         0.0644 
     36 H8         13.6167   12.5665   -3.0806 H         1 <1>         0.0554 
     37 H9         12.3314   15.0835   -5.8058 H         1 <1>         0.0611 
     38 H10        13.0224   14.5725   -7.3741 H         1 <1>         0.0611 
     39 H11        10.7367   15.4539   -7.6773 H         1 <1>         0.0293 
     40 H12        11.9340   16.4900   -8.4898 H         1 <1>         0.0293 
     41 H13        10.1992   17.8318   -7.4436 H         1 <1>         0.0296 
     42 H14         9.7121   17.9266   -5.0489 H         1 <1>         0.0232 
     43 H15        10.9841   16.7417   -4.6643 H         1 <1>         0.0232 
     44 H16         9.5377   16.2341   -5.5850 H         1 <1>         0.0232 
     45 H17        12.7235   18.2705   -5.7278 H         1 <1>         0.0232 
     46 H18        11.5033   19.4643   -6.2004 H         1 <1>         0.0232 
     47 H19        12.5699   18.7558   -7.4433 H         1 <1>         0.0232 
@<TRIPOS>BOND
     1    2    1 ar   
     2    2    3 ar   
     3    3    4 ar   
     4    4    5 ar   
     5    5    6 ar   
     6    1    6 ar   
     7    2    7 1    
     8    7    8 1    
     9    7    9 2    
    10    6   10 1    
    11   10   11 1    
    12   11   12 1    
    13    5   12 1    
    14   12   13 2    
    15   10   14 2    
    16   11   15 1    
    17   15   16 ar   
    18   16   17 ar   
    19   17   18 ar   
    20   18   19 ar   
    21   19   20 ar   
    22   20   15 ar   
    23   18   21 1    
    24   21   22 1    
    25   22   23 1    
    26   23   24 1    
    27   24   25 1    
    28   25   26 1    
    29   25   27 1    
    30   21   28 2    
    31    1   29 1    
    32    3   30 1    
    33    4   31 1    
    34    8   32 1    
    35   16   33 1    
    36   17   34 1    
    37   19   35 1    
    38   20   36 1    
    39   23   37 1    
    40   23   38 1    
    41   24   39 1    
    42   24   40 1    
    43   25   41 1    
    44   26   42 1    
    45   26   43 1    
    46   26   44 1    
    47   27   45 1    
    48   27   46 1    
    49   27   47 1    
@<TRIPOS>SUBSTRUCTURE
     1 ****        2 TEMP              0 ****  ****    0 ROOT 
@<TRIPOS>NORMAL
@<TRIPOS>FF_PBC
FORCE_FIELD_SETUP_FEATURE Force Field Setup information
v1.0  0 0.000000 0.000000 0.000000 0.000000 0.000000 0.000000 NONE 0 0 0 0 1 0 0 0 0 0 0 0 0
