#	Name:			PISM00629.1
#	Creating user name:	baoopengkun
#	Creation time:		Fri Jan 04 21:46:16 2019

#	Modifying user name:	baoopengkun
#	Modification time:	Fri Jan 04 21:49:53 2019

@<TRIPOS>MOLECULE
PISM00629.1
   54    58     1     1     0
SMALL
GAST_HUCK


@<TRIPOS>ATOM
      1 C1          3.7392   -2.1982    4.4182 C.3       1 <1>         0.0939 
      2 C2          2.5201   -2.3594    3.4777 C.3       1 <1>         0.1959 
      3 O3          2.1517   -0.9968    3.2369 O.3       1 <1>        -0.3516 
      4 C4          3.3684   -0.2441    3.2436 C.3       1 <1>         0.1939 
      5 O5          3.9769   -0.7831    4.4261 O.3       1 <1>        -0.3786 
      6 O6          2.9634   -2.9856    2.2630 O.3       1 <1>        -0.2898 
      7 C7          2.1575   -3.0594    1.1208 C.ar      1 <1>         0.0982 
      8 C8          0.8101   -2.6748    1.1384 C.ar      1 <1>        -0.0391 
      9 C9          0.0491   -2.7223   -0.0331 C.ar      1 <1>        -0.0774 
     10 C10         0.6256   -3.1650   -1.2257 C.ar      1 <1>        -0.0793 
     11 C11         1.9618   -3.5716   -1.2418 C.ar      1 <1>        -0.0668 
     12 C12         2.7269   -3.5231   -0.0715 C.ar      1 <1>        -0.0024 
     13 C13         4.1907   -3.9806   -0.1046 C.3       1 <1>         0.0122 
     14 C14         4.2086   -5.4998    0.0960 C.ar      1 <1>        -0.0337 
     15 C15         4.1629   -6.0346    1.3884 C.ar      1 <1>        -0.0587 
     16 C16         4.1846   -7.4189    1.5814 C.ar      1 <1>        -0.0683 
     17 C17         4.2510   -8.2772    0.4805 C.ar      1 <1>        -0.0686 
     18 C18         4.2923   -7.7484   -0.8125 C.ar      1 <1>        -0.0683 
     19 C19         4.2683   -6.3637   -1.0036 C.ar      1 <1>        -0.0587 
     20 C20         4.1858   -0.4768    1.9656 C.ar      1 <1>         0.0069 
     21 C21         3.5410   -0.4723    0.7243 C.ar      1 <1>        -0.0348 
     22 C22         4.2634   -0.7179   -0.4463 C.ar      1 <1>        -0.0180 
     23 C23         5.6396   -0.9498   -0.3801 C.ar      1 <1>         0.0714 
     24 C24         6.2928   -0.9242    0.8552 C.ar      1 <1>        -0.0180 
     25 C25         5.5673   -0.6866    2.0262 C.ar      1 <1>        -0.0348 
     26 Cl26        6.5436   -1.2760   -1.8441 Cl        1 <1>        -0.0420 
     27 C27         3.1103    1.2686    3.4046 C.3       1 <1>         0.1074 
     28 N28         4.3826    1.9699    3.3482 N.pl3     1 <1>        -0.1814 
     29 N29         4.8183    2.7927    2.3537 N.2       1 <1>        -0.1908 
     30 C30         5.9913    3.2607    2.5695 C.2       1 <1>         0.0618 
     31 N31         6.2965    2.6541    3.8363 N.2       1 <1>        -0.2870 
     32 C32         5.3420    1.9357    4.2207 C.2       1 <1>         0.1270 
     33 H1          4.6160   -2.7340    4.0222 H         1 <1>         0.0604 
     34 H2          3.5387   -2.5355    5.4465 H         1 <1>         0.0604 
     35 H3          1.7012   -2.9340    3.9395 H         1 <1>         0.0978 
     36 H4          0.3314   -2.3339    2.0482 H         1 <1>         0.0522 
     37 H5         -0.9924   -2.4149   -0.0172 H         1 <1>         0.0533 
     38 H6          0.0361   -3.1946   -2.1372 H         1 <1>         0.0506 
     39 H7          2.4013   -3.9270   -2.1682 H         1 <1>         0.0530 
     40 H8          4.7828   -3.4958    0.6861 H         1 <1>         0.0561 
     41 H9          4.6516   -3.7078   -1.0662 H         1 <1>         0.0561 
     42 H10         4.1091   -5.3763    2.2495 H         1 <1>         0.0560 
     43 H11         4.1497   -7.8277    2.5867 H         1 <1>         0.0600 
     44 H12         4.2702   -9.3525    0.6295 H         1 <1>         0.0560 
     45 H13         4.3428   -8.4140   -1.6689 H         1 <1>         0.0600 
     46 H14         4.2952   -5.9648   -2.0124 H         1 <1>         0.0560 
     47 H15         2.4743   -0.2796    0.6687 H         1 <1>         0.0849 
     48 H16         3.7568   -0.7313   -1.4060 H         1 <1>         0.0703 
     49 H17         7.3642   -1.0895    0.9033 H         1 <1>         0.0703 
     50 H18         6.0805   -0.6625    2.9820 H         1 <1>         0.0849 
     51 H19         2.4633    1.6222    2.5883 H         1 <1>         0.0595 
     52 H20         2.6056    1.4569    4.3639 H         1 <1>         0.0595 
     53 H21         6.5910    3.9341    1.9592 H         1 <1>         0.0863 
     54 H22         5.3331    1.3676    5.1506 H         1 <1>         0.1361 
@<TRIPOS>BOND
     1    2    1 1    
     2    2    3 1    
     3    3    4 1    
     4    4    5 1    
     5    1    5 1    
     6    2    6 1    
     7    6    7 1    
     8    7    8 ar   
     9    8    9 ar   
    10    9   10 ar   
    11   10   11 ar   
    12   11   12 ar   
    13    7   12 ar   
    14   12   13 1    
    15   13   14 1    
    16   14   15 ar   
    17   15   16 ar   
    18   16   17 ar   
    19   17   18 ar   
    20   18   19 ar   
    21   14   19 ar   
    22    4   20 1    
    23   20   21 ar   
    24   21   22 ar   
    25   22   23 ar   
    26   23   24 ar   
    27   24   25 ar   
    28   20   25 ar   
    29   23   26 1    
    30    4   27 1    
    31   27   28 1    
    32   28   29 1    
    33   29   30 2    
    34   30   31 1    
    35   31   32 2    
    36   28   32 1    
    37    1   33 1    
    38    1   34 1    
    39    2   35 1    
    40    8   36 1    
    41    9   37 1    
    42   10   38 1    
    43   11   39 1    
    44   13   40 1    
    45   13   41 1    
    46   15   42 1    
    47   16   43 1    
    48   17   44 1    
    49   18   45 1    
    50   19   46 1    
    51   21   47 1    
    52   22   48 1    
    53   24   49 1    
    54   25   50 1    
    55   27   51 1    
    56   27   52 1    
    57   30   53 1    
    58   32   54 1    
@<TRIPOS>SUBSTRUCTURE
     1 ****        2 TEMP              0 ****  ****    0 ROOT 
@<TRIPOS>NORMAL
@<TRIPOS>FF_PBC
FORCE_FIELD_SETUP_FEATURE Force Field Setup information
v1.0  0 0.000000 0.000000 0.000000 0.000000 0.000000 0.000000 NONE 0 0 0 0 1 0 0 0 0 0 0 0 0
