#	Name:			PISM00935
#	Creating user name:	baoopengkun
#	Creation time:		Wed Dec 12 22:41:34 2018

#	Modifying user name:	baoopengkun
#	Modification time:	Wed Dec 12 23:00:49 2018

@<TRIPOS>MOLECULE
PISM00935
   22    22     1     1     0
SMALL
GAST_HUCK


@<TRIPOS>ATOM
      1 C1          2.1775  -10.1963    4.3189 C.3       1 <1>         0.0211 
      2 C2          2.3765   -9.4907    5.6323 C.2       1 <1>         0.1075 
      3 C3          3.4265   -9.5166    6.4500 C.2       1 <1>         0.0164 
      4 C4          3.1978   -8.6480    7.6628 C.3       1 <1>         0.2195 
      5 O5          1.8711   -8.1148    7.4863 O.3       1 <1>        -0.2894 
      6 C6          1.4486   -8.6022    6.3253 C.2       1 <1>         0.3149 
      7 C7          4.7241  -10.2684    6.3009 C.3       1 <1>        -0.0304 
      8 O8          3.2692   -9.4020    8.8760 O.3       1 <1>        -0.4174 
      9 O9          0.3520   -8.3279    5.8678 O.2       1 <1>        -0.3160 
     10 C10         4.1702   -7.5629    7.6748 C.1       1 <1>        -0.1058 
     11 C11         4.9752   -6.6679    7.6803 C.1       1 <1>        -0.1170 
     12 C12         5.9493   -5.5844    7.6879 C.3       1 <1>        -0.0037 
     13 H1          1.1947   -9.9424    3.8939 H         1 <1>         0.0617 
     14 H2          2.2288  -11.2848    4.4695 H         1 <1>         0.0617 
     15 H3          2.9607   -9.8904    3.6094 H         1 <1>         0.0617 
     16 H4          4.7327  -10.8807    5.3873 H         1 <1>         0.0389 
     17 H5          4.8654  -10.9291    7.1692 H         1 <1>         0.0389 
     18 H6          5.5623   -9.5570    6.2556 H         1 <1>         0.0389 
     19 H7          2.5925  -10.0685    8.9095 H         1 <1>         0.1900 
     20 H8          6.9258   -5.9727    8.0126 H         1 <1>         0.0361 
     21 H9          5.6165   -4.7992    8.3825 H         1 <1>         0.0361 
     22 H10         6.0386   -5.1654    6.6749 H         1 <1>         0.0361 
@<TRIPOS>BOND
     1    2    1 1    
     2    2    3 2    
     3    3    4 1    
     4    4    5 1    
     5    5    6 1    
     6    2    6 1    
     7    3    7 1    
     8    4    8 1    
     9    6    9 2    
    10    4   10 1    
    11   10   11 3    
    12   11   12 1    
    13    1   13 1    
    14    1   14 1    
    15    1   15 1    
    16    7   16 1    
    17    7   17 1    
    18    7   18 1    
    19    8   19 1    
    20   12   20 1    
    21   12   21 1    
    22   12   22 1    
@<TRIPOS>SUBSTRUCTURE
     1 ****        2 TEMP              0 ****  ****    0 ROOT 
@<TRIPOS>NORMAL
@<TRIPOS>FF_PBC
FORCE_FIELD_SETUP_FEATURE Force Field Setup information
v1.0  0 0.000000 0.000000 0.000000 0.000000 0.000000 0.000000 NONE 0 0 0 0 1 0 0 0 0 0 0 0 0
