#	Name:			PISM01190
#	Creating user name:	malab
#	Creation time:		Thu Apr 11 00:34:08 2019

#	Modifying user name:	malab
#	Modification time:	Thu Apr 11 00:37:51 2019

@<TRIPOS>MOLECULE
PISM01190
  102   103     1     2     0
SMALL
GAST_HUCK


@<TRIPOS>ATOM
      1 C1         19.0575   29.5432  -43.0560 C.3       1 <1>         0.0650 
      2 C2         20.5482   29.7726  -42.6850 C.3       1 <1>         0.0090 
      3 C3         20.6555   30.0695  -41.1545 C.3       1 <1>         0.0692 
      4 O4         19.3910   29.8300  -40.5001 O.3       1 <1>        -0.3445 
      5 C5         18.8506   28.5101  -40.7148 C.3       1 <1>         0.1748 
      6 C6         18.4537   28.3840  -42.2210 C.3       1 <1>         0.0280 
      7 C7         17.6281   28.3675  -39.7472 C.3       1 <1>         0.0365 
      8 C8         18.0313   28.7524  -38.2826 C.3       1 <1>         0.0682 
      9 C9         16.8887   28.6844  -37.2208 C.3       1 <1>         0.0174 
     10 C10        17.3947   29.0876  -35.7936 C.3       1 <1>         0.1243 
     11 O11        17.1097   30.4684  -35.4734 O.3       1 <1>        -0.2684 
     12 C12        18.0727   31.3781  -35.6935 C.2       1 <1>         0.2902 
     13 O13        19.0305   31.1378  -36.4097 O.2       1 <1>        -0.3565 
     14 C14        17.9734   32.6721  -34.9719 C.2       1 <1>         0.1705 
     15 O15        18.3497   33.8522  -35.5010 O.3       1 <1>        -0.3125 
     16 C16        18.8900   33.8323  -36.8346 C.3       1 <1>         0.0606 
     17 C17        17.4708   32.6264  -33.7296 C.2       1 <1>        -0.0329 
     18 C18        17.2745   33.7064  -32.7392 C.2       1 <1>        -0.0700 
     19 C19        18.2420   34.8678  -32.7175 C.3       1 <1>        -0.0432 
     20 C20        16.2462   33.5871  -31.8781 C.2       1 <1>        -0.0867 
     21 C21        15.8606   34.5631  -30.7916 C.3       1 <1>         0.0006 
     22 C22        14.3815   35.0077  -30.9711 C.3       1 <1>        -0.0527 
     23 C23        16.2605   34.0893  -29.3519 C.3       1 <1>         0.0695 
     24 C24        15.6218   32.8158  -28.6830 C.3       1 <1>        -0.0037 
     25 C25        16.1910   31.3968  -29.0552 C.3       1 <1>        -0.0119 
     26 C26        15.6970   30.5855  -30.2485 C.2       1 <1>        -0.0650 
     27 C27        16.5194   30.2165  -31.2459 C.2       1 <1>        -0.0939 
     28 C28        16.1308   29.4809  -32.4750 C.2       1 <1>        -0.1039 
     29 C29        17.0212   28.9468  -33.3254 C.2       1 <1>        -0.0700 
     30 C30        16.6463   28.3188  -34.6577 C.3       1 <1>         0.1076 
     31 C31        14.2445   30.1571  -30.2528 C.3       1 <1>        -0.0286 
     32 O32        18.2923   30.7304  -42.7683 O.3       1 <1>        -0.3913 
     33 C33        21.4541   28.5848  -43.1169 C.3       1 <1>        -0.0577 
     34 C34        21.0822   31.5375  -40.8424 C.3       1 <1>        -0.0199 
     35 C35        22.5730   31.7943  -41.2109 C.3       1 <1>        -0.0603 
     36 C36        20.8639   31.8658  -39.3377 C.3       1 <1>        -0.0603 
     37 O37        19.8695   27.5554  -40.3566 O.3       1 <1>        -0.3641 
     38 C38        16.9904   26.9480  -39.8113 C.3       1 <1>        -0.0551 
     39 O39        19.0947   27.9006  -37.8156 O.3       1 <1>        -0.3910 
     40 C40        15.6633   29.5563  -37.6242 C.3       1 <1>        -0.0571 
     41 H1         18.9519   29.3110  -44.1313 H         1 <1>         0.0000 
     42 O42        16.7660   26.8780  -34.6817 O.3       1 <1>        -0.3668 
     43 C43        18.0775   26.3469  -34.4154 C.3       1 <1>         0.0395 
     44 O44        16.0185   35.1806  -28.4340 O.3       1 <1>        -0.3890 
     45 C45        14.0808   32.8773  -28.4982 C.3       1 <1>        -0.0576 
     46 H2         20.8802   30.6389  -43.2804 H         1 <1>         0.0000 
     47 H3         21.4104   29.4218  -40.6797 H         1 <1>         0.0000 
     48 H4         17.3629   28.4436  -42.3620 H         1 <1>         0.0000 
     49 H5         18.7759   27.4126  -42.6275 H         1 <1>         0.0000 
     50 H6         16.8874   29.1026  -40.1017 H         1 <1>         0.0000 
     51 H7         18.3812   29.7946  -38.2912 H         1 <1>         0.0000 
     52 H8         16.5720   27.6320  -37.1596 H         1 <1>         0.0000 
     53 H9         18.4627   28.8678  -35.6461 H         1 <1>         0.0000 
     54 H10        19.0312   34.8793  -37.1397 H         1 <1>         0.0000 
     55 H11        18.2060   33.3564  -37.5545 H         1 <1>         0.0000 
     56 H12        19.8767   33.3474  -36.8550 H         1 <1>         0.0000 
     57 H13        17.1605   31.6541  -33.3710 H         1 <1>         0.0000 
     58 H14        18.5790   35.0794  -31.6918 H         1 <1>         0.0000 
     59 H15        17.7624   35.7621  -33.1415 H         1 <1>         0.0000 
     60 H16        19.1477   34.6452  -33.2999 H         1 <1>         0.0000 
     61 H17        15.5925   32.7188  -31.9411 H         1 <1>         0.0000 
     62 H18        16.4198   35.4980  -30.9519 H         1 <1>         0.0000 
     63 H19        14.2816   35.6102  -31.8883 H         1 <1>         0.0000 
     64 H20        14.0472   35.6212  -30.1203 H         1 <1>         0.0000 
     65 H21        13.7038   34.1538  -31.0855 H         1 <1>         0.0000 
     66 H22        17.3530   33.9212  -29.3702 H         1 <1>         0.0000 
     67 H23        15.9891   32.9338  -27.6432 H         1 <1>         0.0000 
     68 H24        15.9963   30.7234  -28.2031 H         1 <1>         0.0000 
     69 H25        17.2858   31.5027  -29.1044 H         1 <1>         0.0000 
     70 H26        17.5726   30.4889  -31.1732 H         1 <1>         0.0000 
     71 H27        15.0738   29.4015  -32.7223 H         1 <1>         0.0000 
     72 H28        18.0800   28.9975  -33.0714 H         1 <1>         0.0000 
     73 H29        15.5702   28.4704  -34.8251 H         1 <1>         0.0000 
     74 H30        14.1630   29.1045  -30.5617 H         1 <1>         0.0000 
     75 H31        13.6654   30.7771  -30.9532 H         1 <1>         0.0000 
     76 H32        13.7927   30.2131  -29.2527 H         1 <1>         0.0000 
     77 H33        18.5703   31.4880  -43.2730 H         1 <1>         0.0000 
     78 H34        21.3395   28.3867  -44.1939 H         1 <1>         0.0000 
     79 H35        21.2118   27.6653  -42.5669 H         1 <1>         0.0000 
     80 H36        22.5096   28.8322  -42.9225 H         1 <1>         0.0000 
     81 H37        20.4444   32.2247  -41.4246 H         1 <1>         0.0000 
     82 H38        22.8383   32.8440  -41.0101 H         1 <1>         0.0000 
     83 H39        22.7761   31.5955  -42.2728 H         1 <1>         0.0000 
     84 H40        23.2315   31.1504  -40.6079 H         1 <1>         0.0000 
     85 H41        19.7963   31.8143  -39.0771 H         1 <1>         0.0000 
     86 H42        21.2147   32.8845  -39.1107 H         1 <1>         0.0000 
     87 H43        21.4155   31.1551  -38.7033 H         1 <1>         0.0000 
     88 H44        19.6200   26.6505  -40.5070 H         1 <1>         0.0000 
     89 H45        16.8864   26.5987  -40.8484 H         1 <1>         0.0000 
     90 H46        15.9836   26.9480  -39.3692 H         1 <1>         0.0000 
     91 H47        17.6032   26.2183  -39.2618 H         1 <1>         0.0000 
     92 H48        19.8922   27.9723  -38.3292 H         1 <1>         0.0000 
     93 H49        15.1548   29.1562  -38.5127 H         1 <1>         0.0000 
     94 H50        15.9872   30.5859  -37.8415 H         1 <1>         0.0000 
     95 H51        14.9165   29.5948  -36.8183 H         1 <1>         0.0000 
     96 H52        17.9812   25.2519  -34.4467 H         1 <1>         0.0000 
     97 H53        18.4417   26.6234  -33.4153 H         1 <1>         0.0000 
     98 H54        18.8175   26.6361  -35.1743 H         1 <1>         0.0000 
     99 H55        16.4859   35.9843  -28.6415 H         1 <1>         0.0000 
    100 H56        13.7687   33.8776  -28.1608 H         1 <1>         0.0000 
    101 H57        13.7563   32.1518  -27.7352 H         1 <1>         0.0000 
    102 H58        13.5493   32.6458  -29.4246 H         1 <1>         0.0000 
@<TRIPOS>BOND
     1    2    1 1    
     2    2    3 1    
     3    3    4 1    
     4    4    5 1    
     5    5    6 1    
     6    1    6 1    
     7    5    7 1    
     8    7    8 1    
     9    8    9 1    
    10    9   10 1    
    11   10   11 1    
    12   11   12 1    
    13   12   13 2    
    14   12   14 1    
    15   14   15 1    
    16   15   16 1    
    17   14   17 2    
    18   17   18 1    
    19   18   19 1    
    20   18   20 2    
    21   20   21 1    
    22   21   22 1    
    23   21   23 1    
    24   23   24 1    
    25   24   25 1    
    26   25   26 1    
    27   26   27 2    
    28   27   28 1    
    29   28   29 2    
    30   29   30 1    
    31   10   30 1    
    32   26   31 1    
    33    1   32 1    
    34    2   33 1    
    35    3   34 1    
    36   34   35 1    
    37   34   36 1    
    38    5   37 1    
    39    7   38 1    
    40    8   39 1    
    41    9   40 1    
    42    1   41 1    
    43   30   42 1    
    44   42   43 1    
    45   23   44 1    
    46   24   45 1    
    47    2   46 1    
    48    3   47 1    
    49    6   48 1    
    50    6   49 1    
    51    7   50 1    
    52    8   51 1    
    53    9   52 1    
    54   10   53 1    
    55   16   54 1    
    56   16   55 1    
    57   16   56 1    
    58   17   57 1    
    59   19   58 1    
    60   19   59 1    
    61   19   60 1    
    62   20   61 1    
    63   21   62 1    
    64   22   63 1    
    65   22   64 1    
    66   22   65 1    
    67   23   66 1    
    68   24   67 1    
    69   25   68 1    
    70   25   69 1    
    71   27   70 1    
    72   28   71 1    
    73   29   72 1    
    74   30   73 1    
    75   31   74 1    
    76   31   75 1    
    77   31   76 1    
    78   32   77 1    
    79   33   78 1    
    80   33   79 1    
    81   33   80 1    
    82   34   81 1    
    83   35   82 1    
    84   35   83 1    
    85   35   84 1    
    86   36   85 1    
    87   36   86 1    
    88   36   87 1    
    89   37   88 1    
    90   38   89 1    
    91   38   90 1    
    92   38   91 1    
    93   39   92 1    
    94   40   93 1    
    95   40   94 1    
    96   40   95 1    
    97   43   96 1    
    98   43   97 1    
    99   43   98 1    
   100   44   99 1    
   101   45  100 1    
   102   45  101 1    
   103   45  102 1    
@<TRIPOS>SUBSTRUCTURE
     1 ****        2 TEMP              0 ****  ****    0 ROOT 
@<TRIPOS>NORMAL
@<TRIPOS>FF_PBC
FORCE_FIELD_SETUP_FEATURE Force Field Setup information
v1.0  0 0.000000 0.000000 0.000000 0.000000 0.000000 0.000000 NONE 0 0 0 0 0 0 0 0 0 0 0 0 0
@<TRIPOS>RENDERING_ATTRS
ANTIALIASED_LINES 
*
