#	Name:			PISM00964.1
#	Creating user name:	baoopengkun
#	Creation time:		Thu Dec 13 10:35:31 2018

#	Modifying user name:	baoopengkun
#	Modification time:	Thu Dec 13 11:03:47 2018

@<TRIPOS>MOLECULE
PISM00964.1
   41    43     1     1     0
SMALL
GAST_HUCK


@<TRIPOS>ATOM
      1 C1         -7.8081   12.4623   -7.4767 C.ar      1 <1>         0.0379 
      2 C2         -7.0427   11.7955   -6.5198 C.ar      1 <1>         0.1648 
      3 C3         -7.4507   10.5410   -6.0642 C.ar      1 <1>        -0.0007 
      4 C4         -8.6303    9.9674   -6.5489 C.ar      1 <1>        -0.0398 
      5 C5         -9.4379   10.6528   -7.4685 C.ar      1 <1>         0.0092 
      6 C6         -8.9843   11.8852   -7.9611 C.ar      1 <1>         0.1625 
      7 C7        -10.7971   10.0939   -7.9566 C.3       1 <1>         0.0816 
      8 O8        -11.6650   11.2057   -8.2341 O.3       1 <1>        -0.4265 
      9 C9        -10.5396    9.3626   -9.3042 C.3       1 <1>        -0.0398 
     10 C10       -11.4812    9.1605   -6.9070 C.3       1 <1>         0.0781 
     11 N11       -12.9063    8.9422   -7.1292 N.pl3     1 <1>        -0.1849 
     12 N12       -13.8221    9.8640   -7.5406 N.2       1 <1>        -0.1910 
     13 C13       -15.0025    9.3852   -7.6731 C.2       1 <1>         0.0618 
     14 N14       -14.7787    8.0168   -7.2980 N.2       1 <1>        -0.2870 
     15 C15       -13.5730    7.8340   -7.0038 C.2       1 <1>         0.1268 
     16 C16       -11.8306    8.8397   -9.9864 C.3       1 <1>        -0.0249 
     17 C17       -11.4857    8.3065  -11.3845 C.ar      1 <1>        -0.0435 
     18 C18       -11.5116    9.1637  -12.4906 C.ar      1 <1>        -0.0597 
     19 C19       -11.2036    8.6805  -13.7658 C.ar      1 <1>        -0.0546 
     20 C20       -10.8642    7.3366  -13.9415 C.ar      1 <1>         0.0330 
     21 C21       -10.8318    6.4778  -12.8398 C.ar      1 <1>        -0.0546 
     22 C22       -11.1398    6.9623  -11.5651 C.ar      1 <1>        -0.0597 
     23 Cl23      -10.4795    6.7298  -15.5392 Cl        1 <1>        -0.0771 
     24 F24        -5.9302   12.3504   -6.0469 F         1 <1>        -0.1572 
     25 F25        -9.6565   12.5354   -8.9069 F         1 <1>        -0.1564 
     26 H1         -7.4877   13.4302   -7.8460 H         1 <1>         0.0674 
     27 H2         -6.8448   10.0157   -5.3325 H         1 <1>         0.0665 
     28 H3         -8.8953    8.9786   -6.1950 H         1 <1>         0.0822 
     29 H4        -11.9044   11.6990   -7.4570 H         1 <1>         0.1942 
     30 H5         -9.8436    8.5227   -9.1476 H         1 <1>         0.0206 
     31 H6        -10.0598   10.0763   -9.9939 H         1 <1>         0.0206 
     32 H7        -11.4112    9.6295   -5.9137 H         1 <1>         0.0557 
     33 H8        -10.9739    8.1846   -6.8763 H         1 <1>         0.0557 
     34 H9        -15.9204    9.8814   -7.9845 H         1 <1>         0.0863 
     35 H10       -13.1691    6.8714   -6.6928 H         1 <1>         0.1361 
     36 H11       -12.5732    9.6491  -10.0696 H         1 <1>         0.0419 
     37 H12       -12.2832    8.0284   -9.3989 H         1 <1>         0.0419 
     38 H13       -11.7696   10.2103  -12.3629 H         1 <1>         0.0557 
     39 H14       -11.2269    9.3477  -14.6213 H         1 <1>         0.0606 
     40 H15       -10.5668    5.4344  -12.9765 H         1 <1>         0.0606 
     41 H16       -11.1072    6.2883  -10.7151 H         1 <1>         0.0557 
@<TRIPOS>BOND
     1    2    1 ar   
     2    2    3 ar   
     3    3    4 ar   
     4    4    5 ar   
     5    5    6 ar   
     6    1    6 ar   
     7    5    7 1    
     8    7    8 1    
     9    7    9 1    
    10    7   10 1    
    11   10   11 1    
    12   11   12 1    
    13   12   13 2    
    14   13   14 1    
    15   14   15 2    
    16   11   15 1    
    17    9   16 1    
    18   16   17 1    
    19   17   18 ar   
    20   18   19 ar   
    21   19   20 ar   
    22   20   21 ar   
    23   21   22 ar   
    24   17   22 ar   
    25   20   23 1    
    26    2   24 1    
    27    6   25 1    
    28    1   26 1    
    29    3   27 1    
    30    4   28 1    
    31    8   29 1    
    32    9   30 1    
    33    9   31 1    
    34   10   32 1    
    35   10   33 1    
    36   13   34 1    
    37   15   35 1    
    38   16   36 1    
    39   16   37 1    
    40   18   38 1    
    41   19   39 1    
    42   21   40 1    
    43   22   41 1    
@<TRIPOS>SUBSTRUCTURE
     1 ****        2 TEMP              0 ****  ****    0 ROOT 
@<TRIPOS>NORMAL
@<TRIPOS>FF_PBC
FORCE_FIELD_SETUP_FEATURE Force Field Setup information
v1.0  0 0.000000 0.000000 0.000000 0.000000 0.000000 0.000000 NONE 0 0 0 0 1 0 0 0 0 0 0 0 0
