#	Name:			PISM00702
#	Creating user name:	baoopengkun
#	Creation time:		Thu Jan 24 22:54:58 2019

#	Modifying user name:	baoopengkun
#	Modification time:	Thu Jan 24 22:56:16 2019

@<TRIPOS>MOLECULE
PISM00702
   40    42     1     1     0
SMALL
GAST_HUCK


@<TRIPOS>ATOM
      1 C1         29.4271   -5.3435  -34.0556 C.ar      1 <1>        -0.0669 
      2 C2         29.4837   -6.3936  -33.1360 C.ar      1 <1>        -0.0660 
      3 C3         28.5067   -6.4934  -32.1413 C.ar      1 <1>        -0.0268 
      4 C4         27.5042   -5.5228  -32.0323 C.ar      1 <1>         0.1100 
      5 C5         27.4485   -4.4636  -32.9485 C.ar      1 <1>         0.0840 
      6 C6         28.3810   -4.4177  -33.9922 C.ar      1 <1>        -0.0496 
      7 O7         26.5629   -5.5976  -31.0043 O.3       1 <1>        -0.3275 
      8 C8         26.3665   -3.4167  -32.7574 C.2       1 <1>         0.2266 
      9 O9         25.2773   -3.8457  -32.4093 O.2       1 <1>        -0.3730 
     10 N10        26.5526   -2.1320  -32.9344 N.pl3     1 <1>        -0.2240 
     11 C11        25.4898   -1.1552  -32.6441 C.3       1 <1>         0.0591 
     12 C12        25.1238   -1.2145  -31.1381 C.3       1 <1>        -0.0387 
     13 C13        24.2305   -1.3164  -33.5374 C.3       1 <1>        -0.0152 
     14 C14        24.1116   -0.3861  -34.7684 C.3       1 <1>        -0.0476 
     15 C15        23.2609   -0.1082  -33.5087 C.3       1 <1>        -0.0476 
     16 C16        27.7505   -1.6494  -33.3380 C.ar      1 <1>         0.0638 
     17 C17        28.8768   -1.7245  -32.5115 C.ar      1 <1>        -0.0398 
     18 C18        30.0963   -1.2014  -32.9524 C.ar      1 <1>        -0.0722 
     19 C19        30.1925   -0.6224  -34.2217 C.ar      1 <1>        -0.0740 
     20 C20        29.0689   -0.5581  -35.0508 C.ar      1 <1>        -0.0722 
     21 C21        27.8465   -1.0579  -34.5995 C.ar      1 <1>        -0.0398 
     22 H1         30.2009   -5.2418  -34.8131 H         1 <1>         0.0537 
     23 H2         30.2893   -7.1227  -33.1902 H         1 <1>         0.0626 
     24 H3         28.5332   -7.3226  -31.4423 H         1 <1>         0.0555 
     25 H4         28.3022   -3.6692  -34.7725 H         1 <1>         0.0642 
     26 H5         26.1910   -6.4669  -30.9022 H         1 <1>         0.2510 
     27 H6         25.8994   -0.1422  -32.8082 H         1 <1>         0.0593 
     28 H7         24.5918   -2.1404  -30.8791 H         1 <1>         0.0254 
     29 H8         24.4723   -0.3697  -30.8726 H         1 <1>         0.0254 
     30 H9         26.0421   -1.1522  -30.5325 H         1 <1>         0.0254 
     31 H10        23.7282   -2.2936  -33.6111 H         1 <1>         0.0325 
     32 H11        23.5645   -0.7682  -35.6451 H         1 <1>         0.0269 
     33 H12        24.8933    0.3660  -34.9610 H         1 <1>         0.0269 
     34 H13        22.1834   -0.3245  -33.5834 H         1 <1>         0.0269 
     35 H14        23.5409    0.7980  -32.9458 H         1 <1>         0.0269 
     36 H15        28.8025   -2.1829  -31.5291 H         1 <1>         0.0529 
     37 H16        30.9721   -1.2448  -32.3100 H         1 <1>         0.0586 
     38 H17        31.1395   -0.2186  -34.5638 H         1 <1>         0.0514 
     39 H18        29.1420   -0.1201  -36.0409 H         1 <1>         0.0586 
     40 H19        26.9650   -0.9892  -35.2305 H         1 <1>         0.0529 
@<TRIPOS>BOND
     1    2    1 ar   
     2    2    3 ar   
     3    3    4 ar   
     4    4    5 ar   
     5    5    6 ar   
     6    1    6 ar   
     7    4    7 1    
     8    5    8 1    
     9    8    9 2    
    10    8   10 1    
    11   10   11 1    
    12   11   12 1    
    13   11   13 1    
    14   13   14 1    
    15   14   15 1    
    16   13   15 1    
    17   10   16 1    
    18   16   17 ar   
    19   17   18 ar   
    20   18   19 ar   
    21   19   20 ar   
    22   20   21 ar   
    23   16   21 ar   
    24    1   22 1    
    25    2   23 1    
    26    3   24 1    
    27    6   25 1    
    28    7   26 1    
    29   11   27 1    
    30   12   28 1    
    31   12   29 1    
    32   12   30 1    
    33   13   31 1    
    34   14   32 1    
    35   14   33 1    
    36   15   34 1    
    37   15   35 1    
    38   17   36 1    
    39   18   37 1    
    40   19   38 1    
    41   20   39 1    
    42   21   40 1    
@<TRIPOS>SUBSTRUCTURE
     1 ****        2 TEMP              0 ****  ****    0 ROOT 
@<TRIPOS>NORMAL
@<TRIPOS>FF_PBC
FORCE_FIELD_SETUP_FEATURE Force Field Setup information
v1.0  0 0.000000 0.000000 0.000000 0.000000 0.000000 0.000000 NONE 0 0 0 0 1 0 0 0 0 0 0 0 0
