#	Name:			PISM00779
#	Creating user name:	baoopengkun
#	Creation time:		Fri Nov 30 22:18:45 2018

#	Modifying user name:	baoopengkun
#	Modification time:	Fri Nov 30 22:20:18 2018

@<TRIPOS>MOLECULE
PISM00779
   26    27     1     2     0
SMALL
GAST_HUCK


@<TRIPOS>ATOM
      1 C1        -26.8824   13.5252  -16.8798 C.2       1 <1>         0.1059 
      2 O2        -26.2272   12.9327  -17.7208 O.2       1 <1>        -0.4457 
      3 C3        -27.2828   16.9235  -15.1223 C.3       1 <1>         0.0063 
      4 C4        -27.8783   12.8102  -16.0777 C.2       1 <1>         0.0003 
      5 C5        -26.6997   14.9550  -16.5841 C.2       1 <1>         0.1515 
      6 C6        -27.3916   15.4859  -15.5673 C.2       1 <1>         0.1473 
      7 O7        -28.2706   14.7616  -14.8491 O.3       1 <1>        -0.2390 
      8 C8        -28.5198   13.4677  -15.1055 C.2       1 <1>         0.1073 
      9 O9        -25.8473   15.7145  -17.2852 O.3       1 <1>        -0.2929 
     10 C10       -26.1973   15.8688  -18.6742 C.3       1 <1>         0.2268 
     11 C11       -25.1533   16.7586  -19.3040 C.2       1 <1>        -0.0034 
     12 C12       -24.5774   16.1586  -20.3431 C.2       1 <1>         0.0291 
     13 C13       -25.2451   14.8645  -20.3993 C.2       1 <1>         0.2493 
     14 O14       -26.1668   14.6627  -19.4662 O.3       1 <1>        -0.2327 
     15 O15       -24.9845   14.0174  -21.2374 O.2       1 <1>        -0.3691 
     16 C16       -23.4896   16.6884  -21.2336 C.3       1 <1>        -0.0323 
     17 H1        -26.9550   16.9620  -14.0726 H         1 <1>         0.0436 
     18 H2        -28.2696   17.4033  -15.2024 H         1 <1>         0.0436 
     19 H3        -26.5696   17.4991  -15.7296 H         1 <1>         0.0436 
     20 H4        -28.0822   11.7570  -16.2736 H         1 <1>         0.0400 
     21 H5        -29.2646   12.9544  -14.4967 H         1 <1>         0.1276 
     22 H6        -27.1794   16.3575  -18.7752 H         1 <1>         0.1182 
     23 H7        -24.9067   17.7588  -18.9518 H         1 <1>         0.0704 
     24 H8        -22.7106   17.1637  -20.6219 H         1 <1>         0.0347 
     25 H9        -23.9061   17.4320  -21.9277 H         1 <1>         0.0347 
     26 H10       -23.0342   15.8730  -21.8134 H         1 <1>         0.0347 
@<TRIPOS>BOND
     1    1    4 1    
     2    5    1 1    
     3    1    2 2    
     4    6    3 1    
     5    6    5 2    
     6    6    7 1    
     7    7    8 1    
     8    4    8 2    
     9    5    9 1    
    10    9   10 1    
    11   10   11 1    
    12   11   12 2    
    13   12   13 1    
    14   13   14 1    
    15   10   14 1    
    16   13   15 2    
    17   12   16 1    
    18    3   17 1    
    19    3   18 1    
    20    3   19 1    
    21    4   20 1    
    22    8   21 1    
    23   10   22 1    
    24   11   23 1    
    25   16   24 1    
    26   16   25 1    
    27   16   26 1    
@<TRIPOS>SUBSTRUCTURE
     1 ****        4 TEMP              0 ****  ****    0 ROOT 
@<TRIPOS>NORMAL
@<TRIPOS>FF_PBC
FORCE_FIELD_SETUP_FEATURE Force Field Setup information
v1.0  0 0.000000 0.000000 0.000000 0.000000 0.000000 0.000000 NONE 0 0 0 0 0 0 0 0 0 0 0 0 0
@<TRIPOS>RENDERING_ATTRS
ANTIALIASED_LINES 
*
