#	Name:			PISM00062
#	Creating user name:	baoopengkun
#	Creation time:		Thu Dec 27 11:15:44 2018

#	Modifying user name:	baoopengkun
#	Modification time:	Thu Dec 27 11:18:39 2018

@<TRIPOS>MOLECULE
PISM00062
   40    43     1     1     0
SMALL
GAST_HUCK


@<TRIPOS>ATOM
      1 O1         -9.8643    2.5273   -1.5396 O.3       1 <1>        -0.2498 
      2 C2         -9.8949    3.0390   -2.7734 C.2       1 <1>         0.0869 
      3 C3         -8.7381    3.5028   -3.2481 C.2       1 <1>        -0.0553 
      4 C4         -7.8061    3.2517   -2.1522 C.2       1 <1>        -0.0428 
      5 C5         -8.5742    2.6910   -1.2131 C.2       1 <1>         0.1898 
      6 C6         -8.0841    2.2490    0.1149 C.2       1 <1>         0.2526 
      7 N7         -7.2009    2.9051    0.8200 N.pl3     1 <1>        -0.2419 
      8 C8         -6.6912    4.0991    0.4354 C.ar      1 <1>         0.0498 
      9 O9         -8.5385    1.2056    0.5565 O.2       1 <1>        -0.3725 
     10 C10        -7.5369    5.1598    0.0935 C.ar      1 <1>        -0.0522 
     11 C11        -6.9962    6.3725   -0.3411 C.ar      1 <1>        -0.0821 
     12 C12        -5.6098    6.5400   -0.4008 C.ar      1 <1>        -0.0521 
     13 C13        -4.7548    5.4871   -0.0535 C.ar      1 <1>         0.0501 
     14 C14        -5.3053    4.2777    0.3844 C.ar      1 <1>        -0.0196 
     15 N15        -3.4070    5.6198   -0.1237 N.pl3     1 <1>        -0.2397 
     16 C16        -2.8089    6.1552   -1.1551 C.2       1 <1>         0.2623 
     17 O17        -3.4109    6.5630   -2.1357 O.2       1 <1>        -0.3649 
     18 C18        -1.3347    6.2654   -1.1482 C.2       1 <1>         0.1968 
     19 C19        -0.6352    6.8006   -2.1604 C.2       1 <1>        -0.0212 
     20 C20         0.7940    6.6984   -1.7139 C.ar      1 <1>        -0.0005 
     21 C21         0.6702    6.0998   -0.4743 C.ar      1 <1>         0.1286 
     22 O22        -0.6351    5.8114   -0.0804 O.3       1 <1>        -0.2410 
     23 C23         2.0228    7.0556   -2.2662 C.ar      1 <1>        -0.0669 
     24 C24         3.1614    6.7793   -1.4988 C.ar      1 <1>        -0.0738 
     25 C25         3.0515    6.1720   -0.2380 C.ar      1 <1>        -0.0708 
     26 C26         1.8020    5.8231    0.2925 C.ar      1 <1>        -0.0281 
     27 H1        -10.8181    3.0713   -3.3521 H         1 <1>         0.1042 
     28 H2         -8.5305    3.9581   -4.2159 H         1 <1>         0.0365 
     29 H3         -6.7403    3.4758   -2.1389 H         1 <1>         0.0437 
     30 H4         -6.8849    2.4963    1.7126 H         1 <1>         0.2091 
     31 H5         -8.6139    5.0476    0.1687 H         1 <1>         0.0431 
     32 H6         -7.6538    7.1871   -0.6294 H         1 <1>         0.0557 
     33 H7         -5.2054    7.4983   -0.7096 H         1 <1>         0.0431 
     34 H8         -4.6515    3.4637    0.6789 H         1 <1>         0.0433 
     35 H9         -2.8306    5.2647    0.6552 H         1 <1>         0.2095 
     36 H10        -1.0060    7.2170   -3.0961 H         1 <1>         0.0464 
     37 H11         2.0870    7.5242   -3.2425 H         1 <1>         0.0569 
     38 H12         4.1420    7.0392   -1.8860 H         1 <1>         0.0535 
     39 H13         3.9497    5.9686    0.3373 H         1 <1>         0.0564 
     40 H14         1.7102    5.3535    1.2660 H         1 <1>         0.0568 
@<TRIPOS>BOND
     1    2    1 1    
     2    2    3 2    
     3    3    4 1    
     4    4    5 2    
     5    1    5 1    
     6    5    6 1    
     7    6    7 1    
     8    7    8 1    
     9    6    9 2    
    10    8   10 ar   
    11   10   11 ar   
    12   11   12 ar   
    13   12   13 ar   
    14   13   14 ar   
    15    8   14 ar   
    16   13   15 1    
    17   15   16 1    
    18   16   17 2    
    19   16   18 1    
    20   18   19 2    
    21   19   20 1    
    22   20   21 ar   
    23   21   22 1    
    24   18   22 1    
    25   20   23 ar   
    26   23   24 ar   
    27   24   25 ar   
    28   25   26 ar   
    29   21   26 ar   
    30    2   27 1    
    31    3   28 1    
    32    4   29 1    
    33    7   30 1    
    34   10   31 1    
    35   11   32 1    
    36   12   33 1    
    37   14   34 1    
    38   15   35 1    
    39   19   36 1    
    40   23   37 1    
    41   24   38 1    
    42   25   39 1    
    43   26   40 1    
@<TRIPOS>SUBSTRUCTURE
     1 ****        2 TEMP              0 ****  ****    0 ROOT 
@<TRIPOS>NORMAL
@<TRIPOS>FF_PBC
FORCE_FIELD_SETUP_FEATURE Force Field Setup information
v1.0  0 0.000000 0.000000 0.000000 0.000000 0.000000 0.000000 NONE 0 0 0 0 1 0 0 0 0 0 0 0 0
