#	Name:			PISM00842
#	Creating user name:	baoopengkun
#	Creation time:		Thu Dec 13 14:40:19 2018

#	Modifying user name:	baoopengkun
#	Modification time:	Thu Dec 13 14:50:22 2018

@<TRIPOS>MOLECULE
PISM00842
   25    26     1     1     0
SMALL
GAST_HUCK


@<TRIPOS>ATOM
      1 C1         -6.4314   22.7806    2.2153 C.ar      1 <1>        -0.0205 
      2 C2         -7.6628   23.1119    2.7885 C.ar      1 <1>        -0.0352 
      3 C3         -8.6966   22.1706    2.8154 C.ar      1 <1>         0.0840 
      4 C4         -8.4989   20.8995    2.2668 C.ar      1 <1>        -0.0352 
      5 C5         -7.2666   20.5690    1.6948 C.ar      1 <1>        -0.0205 
      6 C6         -6.2310   21.5069    1.6759 C.ar      1 <1>         0.1089 
      7 C7         -9.9656   22.5098    3.4079 C.1       1 <1>         0.0889 
      8 O8         -4.9990   21.1725    1.1186 O.3       1 <1>        -0.2637 
      9 C9         -4.0684   20.6743    2.0882 C.3       1 <1>         0.2380 
     10 C10        -2.7336   20.5011    1.4069 C.2       1 <1>        -0.0015 
     11 C11        -1.8316   21.3287    1.9310 C.2       1 <1>         0.0292 
     12 C12        -2.5760   22.0312    2.9704 C.2       1 <1>         0.2495 
     13 O13        -3.8440   21.6667    3.1101 O.3       1 <1>        -0.2310 
     14 C14        -0.3868   21.4936    1.5461 C.3       1 <1>        -0.0323 
     15 O15        -2.0736   22.8915    3.6725 O.2       1 <1>        -0.3691 
     16 N16       -10.9852   22.7816    3.8838 N.1       1 <1>        -0.3372 
     17 H1         -5.6277   23.5094    2.1873 H         1 <1>         0.0571 
     18 H2         -7.8157   24.0997    3.2125 H         1 <1>         0.0692 
     19 H3         -9.3021   20.1691    2.2848 H         1 <1>         0.0692 
     20 H4         -7.1092   19.5855    1.2643 H         1 <1>         0.0571 
     21 H5         -4.4110   19.7276    2.5383 H         1 <1>         0.1204 
     22 H6         -2.5416   19.8014    0.5944 H         1 <1>         0.0705 
     23 H7          0.1230   20.5191    1.5797 H         1 <1>         0.0347 
     24 H8          0.1170   22.1836    2.2396 H         1 <1>         0.0347 
     25 H9         -0.3211   21.9008    0.5262 H         1 <1>         0.0347 
@<TRIPOS>BOND
     1    2    1 ar   
     2    2    3 ar   
     3    3    4 ar   
     4    4    5 ar   
     5    5    6 ar   
     6    1    6 ar   
     7    3    7 1    
     8    6    8 1    
     9    8    9 1    
    10    9   10 1    
    11   10   11 2    
    12   11   12 1    
    13   12   13 1    
    14    9   13 1    
    15   11   14 1    
    16   12   15 2    
    17    7   16 3    
    18    1   17 1    
    19    2   18 1    
    20    4   19 1    
    21    5   20 1    
    22    9   21 1    
    23   10   22 1    
    24   14   23 1    
    25   14   24 1    
    26   14   25 1    
@<TRIPOS>SUBSTRUCTURE
     1 ****        2 TEMP              0 ****  ****    0 ROOT 
@<TRIPOS>NORMAL
@<TRIPOS>FF_PBC
FORCE_FIELD_SETUP_FEATURE Force Field Setup information
v1.0  0 0.000000 0.000000 0.000000 0.000000 0.000000 0.000000 NONE 0 0 0 0 1 0 0 0 0 0 0 0 0
