#	Name:			PISM00761
#	Creating user name:	baoopengkun
#	Creation time:		Sun Dec 02 11:38:55 2018

#	Modifying user name:	baoopengkun
#	Modification time:	Sun Dec 02 11:47:53 2018

@<TRIPOS>MOLECULE
PISM00761
   36    37     1     2     0
SMALL
GAST_HUCK


@<TRIPOS>ATOM
      1 C1         -3.5936    4.4024   -2.9008 C.2       1 <1>         0.1268 
      2 C2         -4.3397    5.6370   -2.4457 C.3       1 <1>         0.0233 
      3 C3         -3.9639    5.9572   -0.9678 C.3       1 <1>        -0.0429 
      4 C4         -1.7867    4.6359   -1.0645 C.3       1 <1>        -0.0259 
      5 C5         -2.2502    4.0623   -2.3849 C.2       1 <1>         0.0221 
      6 O6         -4.1164    3.6497   -3.7078 O.2       1 <1>        -0.3545 
      7 C7         -1.4592    3.2370   -3.0857 C.2       1 <1>         0.0798 
      8 O8         -0.2462    2.9131   -2.6106 O.3       1 <1>        -0.2695 
      9 C9          0.4866    1.9846   -3.4308 C.3       1 <1>         0.2392 
     10 O10         1.7700    1.7862   -2.8053 O.3       1 <1>        -0.2304 
     11 C11         1.8015    0.5057   -2.4585 C.2       1 <1>         0.2495 
     12 C12         0.6225   -0.2716   -2.8215 C.2       1 <1>         0.0293 
     13 C13        -0.1664    0.6203   -3.4172 C.2       1 <1>        -0.0008 
     14 C14         0.3604   -1.7343   -2.5878 C.3       1 <1>        -0.0323 
     15 O15         2.7580    0.0173   -1.8820 O.2       1 <1>        -0.3691 
     16 C16        -2.4313    6.0076   -0.7399 C.3       1 <1>        -0.0486 
     17 C17        -5.8783    5.4083   -2.5336 C.3       1 <1>        -0.0561 
     18 C18        -3.9502    6.7949   -3.4113 C.3       1 <1>        -0.0561 
     19 H2         -4.3771    5.1770   -0.3075 H         1 <1>         0.0256 
     20 H3         -4.4104    6.9204   -0.6712 H         1 <1>         0.0256 
     21 H4         -0.6910    4.7536   -1.0307 H         1 <1>         0.0359 
     22 H5         -2.0738    3.9076   -0.2892 H         1 <1>         0.0359 
     23 H6         -1.8329    2.8488   -4.0364 H         1 <1>         0.1097 
     24 H7          0.6483    2.3607   -4.4553 H         1 <1>         0.1212 
     25 H8         -1.1474    0.3881   -3.8297 H         1 <1>         0.0706 
     26 H9          1.2540   -2.2212   -2.1691 H         1 <1>         0.0347 
     27 H10         0.1001   -2.2240   -3.5380 H         1 <1>         0.0347 
     28 H11        -0.4743   -1.8511   -1.8807 H         1 <1>         0.0347 
     29 H12        -1.9725    6.7954   -1.3557 H         1 <1>         0.0279 
     30 H13        -2.2255    6.2605    0.3145 H         1 <1>         0.0279 
     31 H14        -6.1914    5.1970   -3.5678 H         1 <1>         0.0219 
     32 H15        -6.4200    6.3013   -2.1858 H         1 <1>         0.0219 
     33 H16        -6.1754    4.5531   -1.9071 H         1 <1>         0.0219 
     34 H1         -4.3915    7.7448   -3.0736 H         1 <1>         0.0219 
     35 H17        -4.3240    6.5825   -4.4250 H         1 <1>         0.0219 
     36 H18        -2.8611    6.9204   -3.4889 H         1 <1>         0.0219 
@<TRIPOS>BOND
     1    2    1 1    
     2    2    3 1    
     3    5    4 1    
     4    4   16 1    
     5    1    5 1    
     6    1    6 2    
     7    5    7 2    
     8    7    8 1    
     9    8    9 1    
    10    9   10 1    
    11   10   11 1    
    12   12   11 1    
    13   13   12 2    
    14    9   13 1    
    15   12   14 1    
    16   11   15 2    
    17    3   16 1    
    18    2   17 1    
    19    2   18 1    
    20    3   19 1    
    21    3   20 1    
    22    4   21 1    
    23    4   22 1    
    24    7   23 1    
    25    9   24 1    
    26   13   25 1    
    27   14   26 1    
    28   14   27 1    
    29   14   28 1    
    30   16   29 1    
    31   16   30 1    
    32   17   31 1    
    33   17   32 1    
    34   17   33 1    
    35   18   34 1    
    36   18   35 1    
    37   18   36 1    
@<TRIPOS>SUBSTRUCTURE
     1 ****        2 TEMP              0 ****  ****    0 ROOT 
@<TRIPOS>NORMAL
@<TRIPOS>FF_PBC
FORCE_FIELD_SETUP_FEATURE Force Field Setup information
v1.0  0 0.000000 0.000000 0.000000 0.000000 0.000000 0.000000 NONE 0 0 0 0 1 0 0 0 0 0 0 0 0
@<TRIPOS>RENDERING_ATTRS
ANTIALIASED_LINES 
1,2,3,4,5,6,7,8,9,10,11,12,13,14,15,16,17,18,19,20,21,22,23,24,25,26,27,28,29,30,31,32,33
