#	Name:			PISM00770
#	Creating user name:	baoopengkun
#	Creation time:		Sat Jan 05 21:54:05 2019

#	Modifying user name:	baoopengkun
#	Modification time:	Sat Jan 05 21:56:49 2019

@<TRIPOS>MOLECULE
PISM00770
   35    37     1     1     0
SMALL
GAST_HUCK


@<TRIPOS>ATOM
      1 C1        -15.2554  -15.2850   22.9227 C.3       1 <1>        -0.0239 
      2 C2        -16.6991  -14.8865   22.5476 C.3       1 <1>        -0.0149 
      3 C3        -17.1599  -16.1134   21.8154 C.2       1 <1>        -0.0647 
      4 C4        -16.0349  -17.0345   21.4152 C.3       1 <1>         0.0410 
      5 C5        -14.7780  -16.1767   21.7443 C.3       1 <1>         0.0132 
      6 C6        -18.4474  -16.3466   21.5354 C.2       1 <1>        -0.1285 
      7 C7        -13.5132  -16.9749   22.0104 C.2       1 <1>        -0.0674 
      8 C8        -13.2037  -18.1095   21.0577 C.3       1 <1>        -0.0154 
      9 C9        -13.7538  -19.4508   21.6122 C.3       1 <1>        -0.0250 
     10 C10       -15.2962  -19.5287   21.4801 C.3       1 <1>         0.0375 
     11 C11       -16.0577  -18.3737   22.2062 C.3       1 <1>         0.1159 
     12 C12       -12.6784  -16.7167   23.0281 C.2       1 <1>        -0.1285 
     13 O13       -17.3883  -18.8644   22.4790 O.3       1 <1>        -0.2684 
     14 C14       -15.9752  -20.7028   22.1261 C.2       1 <1>         0.0421 
     15 C15       -17.2545  -20.1784   22.5904 C.2       1 <1>         0.2646 
     16 O16       -18.1457  -20.8862   23.0280 O.2       1 <1>        -0.3551 
     17 C17       -15.5090  -21.9511   22.2442 C.2       1 <1>        -0.0873 
     18 H1        -15.2868  -15.8740   23.8541 H         1 <1>         0.0323 
     19 H2        -14.6211  -14.3974   23.0820 H         1 <1>         0.0323 
     20 H3        -16.6975  -14.0396   21.8426 H         1 <1>         0.0462 
     21 H4        -17.3203  -14.6374   23.4231 H         1 <1>         0.0462 
     22 H5        -16.1262  -17.2315   20.3349 H         1 <1>         0.0555 
     23 H6        -14.5759  -15.5105   20.8876 H         1 <1>         0.0527 
     24 H7        -19.2195  -15.6436   21.8458 H         1 <1>         0.0075 
     25 H8        -18.7515  -17.2389   20.9893 H         1 <1>         0.0075 
     26 H9        -12.1095  -18.2002   20.9521 H         1 <1>         0.0462 
     27 H10       -13.6019  -17.9044   20.0514 H         1 <1>         0.0462 
     28 H11       -13.4568  -19.5749   22.6664 H         1 <1>         0.0318 
     29 H12       -13.3119  -20.2783   21.0329 H         1 <1>         0.0318 
     30 H13       -15.5787  -19.5613   20.4149 H         1 <1>         0.0503 
     31 H14       -15.6123  -18.2256   23.2052 H         1 <1>         0.0707 
     32 H15       -12.8259  -15.9117   23.7443 H         1 <1>         0.0075 
     33 H16       -11.7860  -17.3223   23.1846 H         1 <1>         0.0075 
     34 H17       -14.5352  -22.2435   21.8560 H         1 <1>         0.0464 
     35 H18       -16.1145  -22.7084   22.7413 H         1 <1>         0.0464 
@<TRIPOS>BOND
     1    2    1 1    
     2    2    3 1    
     3    3    4 1    
     4    4    5 1    
     5    1    5 1    
     6    3    6 2    
     7    5    7 1    
     8    7    8 1    
     9    8    9 1    
    10    9   10 1    
    11   10   11 1    
    12    4   11 1    
    13    7   12 2    
    14   11   13 1    
    15   10   14 1    
    16   14   15 1    
    17   13   15 1    
    18   15   16 2    
    19   14   17 2    
    20    1   18 1    
    21    1   19 1    
    22    2   20 1    
    23    2   21 1    
    24    4   22 1    
    25    5   23 1    
    26    6   24 1    
    27    6   25 1    
    28    8   26 1    
    29    8   27 1    
    30    9   28 1    
    31    9   29 1    
    32   10   30 1    
    33   11   31 1    
    34   12   32 1    
    35   12   33 1    
    36   17   34 1    
    37   17   35 1    
@<TRIPOS>SUBSTRUCTURE
     1 ****        2 TEMP              0 ****  ****    0 ROOT 
@<TRIPOS>NORMAL
@<TRIPOS>FF_PBC
FORCE_FIELD_SETUP_FEATURE Force Field Setup information
v1.0  0 0.000000 0.000000 0.000000 0.000000 0.000000 0.000000 NONE 0 0 0 0 1 0 0 0 0 0 0 0 0
