#	Name:			PISM00831.2
#	Creating user name:	baoopengkun
#	Creation time:		Fri Nov 30 18:13:30 2018

#	Modifying user name:	baoopengkun
#	Modification time:	Fri Nov 30 18:21:14 2018

@<TRIPOS>MOLECULE
PISM00831.2
   35    38     1     2     0
SMALL
GAST_HUCK


@<TRIPOS>ATOM
      1 C1        -17.1113   -0.4967    5.6357 C.ar      1 <1>        -0.0639 
      2 C2        -16.4186   -0.6929    4.4356 C.ar      1 <1>        -0.0754 
      3 C3        -15.1890   -0.0600    4.2107 C.ar      1 <1>        -0.0755 
      4 C4        -14.6344    0.7831    5.1803 C.ar      1 <1>        -0.0666 
      5 C5        -15.3351    0.9762    6.3719 C.ar      1 <1>        -0.0356 
      6 C6        -16.5504    0.3429    6.5994 C.ar      1 <1>        -0.0055 
      7 C7        -17.1228    0.6775    7.9724 C.3       1 <1>         0.1326 
      8 C8        -15.8737    1.3133    8.6672 C.3       1 <1>         0.0641 
      9 C9        -14.9306    1.8440    7.5524 C.3       1 <1>        -0.0036 
     10 O10       -17.4867   -0.5493    8.6371 O.3       1 <1>        -0.2594 
     11 C11       -16.3910   -0.9297    9.2754 C.2       1 <1>         0.2795 
     12 C12       -15.3331    0.0820    9.3281 C.2       1 <1>         0.1489 
     13 O13       -16.3126   -2.0407    9.7738 O.2       1 <1>        -0.3569 
     14 N14       -14.1557    0.0300    9.8156 N.2       1 <1>        -0.1364 
     15 O15       -13.9663   -1.2447   10.3791 O.3       1 <1>        -0.1894 
     16 C16       -13.3540   -2.1703    9.4720 C.3       1 <1>         0.2558 
     17 C17       -13.1779   -3.4855   10.1875 C.2       1 <1>         0.0007 
     18 C18       -11.8851   -3.7864   10.2939 C.2       1 <1>         0.0293 
     19 C19       -11.2178   -2.6704    9.6327 C.2       1 <1>         0.2496 
     20 O20       -12.0199   -1.7352    9.1390 O.3       1 <1>        -0.2288 
     21 C21       -11.2498   -4.9933   10.9282 C.3       1 <1>        -0.0323 
     22 O22       -10.0050   -2.5999    9.5326 O.2       1 <1>        -0.3691 
     23 H1        -18.0626   -0.9857    5.8187 H         1 <1>         0.0538 
     24 H2        -16.8383   -1.3418    3.6728 H         1 <1>         0.0541 
     25 H3        -14.6612   -0.2244    3.2763 H         1 <1>         0.0541 
     26 H4        -13.6830    1.2772    5.0134 H         1 <1>         0.0537 
     27 H5        -17.9719    1.3675    7.8463 H         1 <1>         0.0824 
     28 H6        -16.1193    2.0627    9.4365 H         1 <1>         0.0540 
     29 H7        -13.8627    1.7489    7.8042 H         1 <1>         0.0438 
     30 H8        -15.1635    2.8911    7.3036 H         1 <1>         0.0438 
     31 H9        -13.9546   -2.3018    8.5577 H         1 <1>         0.1229 
     32 H10       -14.0019   -4.0906   10.5639 H         1 <1>         0.0707 
     33 H11       -11.9746   -5.8167   11.0146 H         1 <1>         0.0347 
     34 H12       -10.8851   -4.7272   11.9313 H         1 <1>         0.0347 
     35 H13       -10.3998   -5.3291   10.3154 H         1 <1>         0.0347 
@<TRIPOS>BOND
     1    2    1 ar   
     2    2    3 ar   
     3    3    4 ar   
     4    4    5 ar   
     5    6    5 ar   
     6    1    6 ar   
     7    6    7 1    
     8    7    8 1    
     9    9    8 1    
    10    5    9 1    
    11    7   10 1    
    12   10   11 1    
    13   11   12 1    
    14    8   12 1    
    15   11   13 2    
    16   12   14 2    
    17   14   15 1    
    18   15   16 1    
    19   16   17 1    
    20   17   18 2    
    21   18   19 1    
    22   19   20 1    
    23   16   20 1    
    24   18   21 1    
    25   19   22 2    
    26    1   23 1    
    27    2   24 1    
    28    3   25 1    
    29    4   26 1    
    30    7   27 1    
    31    8   28 1    
    32    9   29 1    
    33    9   30 1    
    34   16   31 1    
    35   17   32 1    
    36   21   33 1    
    37   21   34 1    
    38   21   35 1    
@<TRIPOS>SUBSTRUCTURE
     1 ****        2 TEMP              0 ****  ****    0 ROOT 
@<TRIPOS>NORMAL
@<TRIPOS>FF_PBC
FORCE_FIELD_SETUP_FEATURE Force Field Setup information
v1.0  0 0.000000 0.000000 0.000000 0.000000 0.000000 0.000000 NONE 0 0 0 0 1 0 0 0 0 0 0 0 0
@<TRIPOS>RENDERING_ATTRS
ANTIALIASED_LINES 
*
