#	Name:			PISM00482
#	Creating user name:	baoopengkun
#	Creation time:		Wed Feb 27 22:08:35 2019

#	Modifying user name:	baoopengkun
#	Modification time:	Wed Feb 27 22:14:38 2019

@<TRIPOS>MOLECULE
PISM00482
   16    16     1     1     0
SMALL
GAST_HUCK


@<TRIPOS>ATOM
      1 C1         25.0000    4.8097   -9.7594 C.2       1 <1>        -0.0420 
      2 C2         25.8740    5.6459   -8.8788 C.3       1 <1>        -0.0046 
      3 C3         26.2261    4.3582   -9.6720 C.2       1 <1>        -0.0579 
      4 C4         26.2690    7.0204   -9.4630 C.3       1 <1>        -0.0958 
      5 C5         23.5669    4.8622  -10.1973 C.3       1 <1>        -0.0060 
      6 C6         25.5734    5.5398   -7.3673 C.3       1 <1>        -0.0958 
      7 H1         26.9686    3.6134   -9.9522 H         1 <1>         0.1096 
      8 H2         27.1664    7.3909   -8.9459 H         1 <1>         0.0050 
      9 H3         25.4442    7.7323   -9.3098 H         1 <1>         0.0050 
     10 H4         26.4839    6.9469  -10.5403 H         1 <1>         0.0050 
     11 H5         23.3809    5.8060  -10.7306 H         1 <1>         0.0542 
     12 H6         22.9118    4.8073   -9.3156 H         1 <1>         0.0542 
     13 H7         23.3515    4.0160  -10.8659 H         1 <1>         0.0542 
     14 H8         25.3455    4.5019   -7.0795 H         1 <1>         0.0050 
     15 H9         24.7111    6.1775   -7.1215 H         1 <1>         0.0050 
     16 H10        26.4499    5.8827   -6.7978 H         1 <1>         0.0050 
@<TRIPOS>BOND
     1    2    1 1    
     2    2    3 1    
     3    1    3 2    
     4    2    4 1    
     5    1    5 1    
     6    2    6 1    
     7    3    7 1    
     8    4    8 1    
     9    4    9 1    
    10    4   10 1    
    11    5   11 1    
    12    5   12 1    
    13    5   13 1    
    14    6   14 1    
    15    6   15 1    
    16    6   16 1    
@<TRIPOS>SUBSTRUCTURE
     1 ****        2 TEMP              0 ****  ****    0 ROOT 
@<TRIPOS>NORMAL
@<TRIPOS>FF_PBC
FORCE_FIELD_SETUP_FEATURE Force Field Setup information
v1.0  0 0.000000 0.000000 0.000000 0.000000 0.000000 0.000000 NONE 0 0 0 0 1 0 0 0 0 0 0 0 0
