#	Name:			PISM00913.1
#	Creating user name:	baoopengkun
#	Creation time:		Fri Dec 14 10:31:16 2018

#	Modifying user name:	baoopengkun
#	Modification time:	Fri Dec 14 10:45:52 2018

@<TRIPOS>MOLECULE
PISM00913.1
   37    39     1     1     0
SMALL
GAST_HUCK


@<TRIPOS>ATOM
      1 C1         24.6130   17.1587  -14.9578 C.ar      1 <1>         0.0873 
      2 C2         25.3835   18.3144  -14.7773 C.ar      1 <1>        -0.0294 
      3 C3         25.8177   18.7046  -13.5009 C.ar      1 <1>        -0.0620 
      4 C4         25.4990   17.9467  -12.3665 C.ar      1 <1>        -0.0488 
      5 C5         24.7448   16.7900  -12.5608 C.ar      1 <1>         0.0636 
      6 C6         24.3182   16.4032  -13.8230 C.ar      1 <1>         0.0945 
      7 C7         23.5600   15.1159  -13.6188 C.2       1 <1>         0.2371 
      8 N8         23.5498   14.7992  -12.3097 N.am      1 <1>        -0.1423 
      9 C9         24.2226   15.7363  -11.6158 C.2       1 <1>         0.2414 
     10 O10        23.0435   14.4795  -14.5206 O.2       1 <1>        -0.3740 
     11 O11        24.3952   15.7497  -10.4095 O.2       1 <1>        -0.3670 
     12 C12        22.8655   13.6571  -11.7305 C.3       1 <1>         0.2213 
     13 O13        21.4494   13.9232  -11.7662 O.3       1 <1>        -0.2348 
     14 C14        20.9436   13.0120  -12.5885 C.2       1 <1>         0.2491 
     15 C15        21.9030   12.0580  -13.1346 C.2       1 <1>         0.0288 
     16 C16        23.0618   12.4382  -12.6001 C.2       1 <1>        -0.0059 
     17 C17        21.6454   10.9101  -14.0713 C.3       1 <1>        -0.0323 
     18 O18        19.7546   12.9763  -12.8554 O.2       1 <1>        -0.3691 
     19 N19        24.1816   16.7943  -16.1868 N.pl3     1 <1>        -0.2340 
     20 C20        22.9337   16.9033  -16.5546 C.2       1 <1>         0.2022 
     21 C21        21.8792   17.4551  -15.6195 C.3       1 <1>         0.0402 
     22 O22        22.6020   16.5662  -17.6790 O.2       1 <1>        -0.3787 
     23 C23        20.5221   17.6999  -16.3300 C.3       1 <1>        -0.0475 
     24 H1         25.6448   18.9169  -15.6414 H         1 <1>         0.0578 
     25 H2         26.4098   19.6082  -13.3892 H         1 <1>         0.0632 
     26 H3         25.8230   18.2403  -11.3734 H         1 <1>         0.0584 
     27 H4         23.1873   13.4585  -10.6945 H         1 <1>         0.1152 
     28 H5         24.0195   11.9496  -12.7740 H         1 <1>         0.0702 
     29 H6         22.0278   11.1647  -15.0709 H         1 <1>         0.0347 
     30 H7         20.5658   10.7093  -14.1412 H         1 <1>         0.0347 
     31 H8         22.1545   10.0046  -13.7090 H         1 <1>         0.0347 
     32 H9         24.8659   16.4327  -16.8680 H         1 <1>         0.2134 
     33 H10        22.2349   18.4085  -15.1979 H         1 <1>         0.0508 
     34 H11        21.7120   16.7450  -14.7964 H         1 <1>         0.0508 
     35 H12        20.6510   18.4120  -17.1603 H         1 <1>         0.0255 
     36 H13        19.7879   18.1150  -15.6214 H         1 <1>         0.0255 
     37 H14        20.1247   16.7547  -16.7325 H         1 <1>         0.0255 
@<TRIPOS>BOND
     1    2    1 ar   
     2    2    3 ar   
     3    3    4 ar   
     4    4    5 ar   
     5    6    5 ar   
     6    1    6 ar   
     7    6    7 1    
     8    7    8 am   
     9    9    8 am   
    10    5    9 1    
    11    7   10 2    
    12    9   11 2    
    13    8   12 1    
    14   12   13 1    
    15   13   14 1    
    16   15   14 1    
    17   16   15 2    
    18   12   16 1    
    19   15   17 1    
    20   14   18 2    
    21    1   19 1    
    22   19   20 1    
    23   20   21 1    
    24   20   22 2    
    25   21   23 1    
    26    2   24 1    
    27    3   25 1    
    28    4   26 1    
    29   12   27 1    
    30   16   28 1    
    31   17   29 1    
    32   17   30 1    
    33   17   31 1    
    34   19   32 1    
    35   21   33 1    
    36   21   34 1    
    37   23   35 1    
    38   23   36 1    
    39   23   37 1    
@<TRIPOS>SUBSTRUCTURE
     1 ****        2 TEMP              0 ****  ****    0 ROOT 
@<TRIPOS>NORMAL
@<TRIPOS>FF_PBC
FORCE_FIELD_SETUP_FEATURE Force Field Setup information
v1.0  0 0.000000 0.000000 0.000000 0.000000 0.000000 0.000000 NONE 0 0 0 0 1 0 0 0 0 0 0 0 0
