#	Name:			PISM00764
#	Creating user name:	baoopengkun
#	Creation time:		Sun Dec 02 11:38:55 2018

#	Modifying user name:	baoopengkun
#	Modification time:	Sun Dec 02 12:00:06 2018

@<TRIPOS>MOLECULE
PISM00764
   40    42     1     2     0
SMALL
GAST_HUCK


@<TRIPOS>ATOM
      1 C1          2.9699    5.3232   -3.1143 C.2       1 PHENYL      0.1057 
      2 C2          3.5604    6.4711   -3.8872 C.3       1 PHENYL      0.0179 
      3 C3          4.0486    6.0241   -5.2868 C.3       1 PHENYL     -0.0249 
      4 C4          2.6523    3.9098   -5.2655 C.3       1 PHENYL     -0.0143 
      5 C5          2.5378    4.0666   -3.7652 C.2       1 PHENYL      0.0203 
      6 O6          2.8468    5.4497   -1.9068 O.2       1 PHENYL     -0.4001 
      7 C7          2.0380    3.0609   -3.0331 C.2       1 PHENYL      0.0765 
      8 O8          1.6482    1.9294   -3.6410 O.3       1 PHENYL     -0.2718 
      9 C9          1.1152    0.9461   -2.7382 C.3       1 PHENYL      0.2384 
     10 O10         2.1105    0.5715   -1.7636 O.3       1 PHENYL     -0.2305 
     11 C11         2.3765   -0.7055   -2.0076 C.2       1 PHENYL      0.2495 
     12 C12         1.6139   -1.3092   -3.0945 C.2       1 PHENYL      0.0293 
     13 C13         0.8466   -0.3110   -3.5280 C.2       1 PHENYL     -0.0010 
     14 C14         1.6714   -2.7259   -3.5969 C.3       1 PHENYL     -0.0323 
     15 O15         3.1999   -1.3275   -1.3590 O.2       1 PHENYL     -0.3691 
     16 C16         2.9251    5.2435   -6.0152 C.3       1 PHENYL     -0.0008 
     17 C           1.6908    6.1514   -6.2010 C.ar      1 PHENYL     -0.0386 
     18 C           1.7284    7.1281   -7.2046 C.ar      1 PHENYL     -0.0600 
     19 C           0.6443    7.9846   -7.4164 C.ar      1 PHENYL     -0.0685 
     20 C          -0.4989    7.8730   -6.6221 C.ar      1 PHENYL     -0.0687 
     21 C          -0.5500    6.9010   -5.6203 C.ar      1 PHENYL     -0.0685 
     22 C           0.5370    6.0468   -5.4117 C.ar      1 PHENYL     -0.0600 
     23 H1          4.4119    6.8855   -3.3236 H         1 PHENYL      0.0476 
     24 H2          2.7920    7.2554   -3.9704 H         1 PHENYL      0.0476 
     25 H3          4.9333    5.3744   -5.1783 H         1 PHENYL      0.0314 
     26 H4          4.3472    6.9098   -5.8716 H         1 PHENYL      0.0314 
     27 H5          1.7521    3.4395   -5.6933 H         1 PHENYL      0.0377 
     28 H6          3.4987    3.2233   -5.4324 H         1 PHENYL      0.0377 
     29 H7          1.9618    3.1890   -1.9499 H         1 PHENYL      0.1073 
     30 H8          0.1926    1.2920   -2.2416 H         1 PHENYL      0.1210 
     31 H9          0.1279   -0.3842   -4.3431 H         1 PHENYL      0.0706 
     32 H10         2.2170   -2.7543   -4.5518 H         1 PHENYL      0.0347 
     33 H11         0.6535   -3.1144   -3.7505 H         1 PHENYL      0.0347 
     34 H12         2.1907   -3.3669   -2.8688 H         1 PHENYL      0.0347 
     35 H13         3.2758    4.9743   -7.0276 H         1 PHENYL      0.0477 
     36 H14         2.6081    7.2304   -7.8323 H         1 PHENYL      0.0557 
     37 H15         0.6900    8.7372   -8.1979 H         1 PHENYL      0.0599 
     38 H16        -1.3426    8.5374   -6.7823 H         1 PHENYL      0.0559 
     39 H17        -1.4379    6.8101   -5.0016 H         1 PHENYL      0.0599 
     40 H18         0.4585    5.3084   -4.6243 H         1 PHENYL      0.0557 
@<TRIPOS>BOND
     1    2    1 1    
     2    3    2 1    
     3    4    5 1    
     4   16    4 1    
     5    5    1 1    
     6    1    6 2    
     7    5    7 2    
     8    7    8 1    
     9    8    9 1    
    10    9   10 1    
    11   10   11 1    
    12   12   11 1    
    13   13   12 2    
    14    9   13 1    
    15   12   14 1    
    16   11   15 2    
    17   16    3 1    
    18   17   18 ar   
    19   17   22 ar   
    20   22   21 ar   
    21   21   20 ar   
    22   19   20 ar   
    23   18   19 ar   
    24   17   16 1    
    25    2   23 1    
    26    2   24 1    
    27    3   25 1    
    28    3   26 1    
    29    4   27 1    
    30    4   28 1    
    31    7   29 1    
    32    9   30 1    
    33   13   31 1    
    34   14   32 1    
    35   14   33 1    
    36   14   34 1    
    37   16   35 1    
    38   18   36 1    
    39   19   37 1    
    40   20   38 1    
    41   21   39 1    
    42   22   40 1    
@<TRIPOS>SUBSTRUCTURE
     1 PHENYL     17 PERM              0 ****  ****    0 ROOT 
@<TRIPOS>NORMAL
@<TRIPOS>FF_PBC
FORCE_FIELD_SETUP_FEATURE Force Field Setup information
v1.0  0 0.000000 0.000000 0.000000 0.000000 0.000000 0.000000 NONE 0 0 0 0 1 0 0 0 0 0 0 0 0
@<TRIPOS>RENDERING_ATTRS
ANTIALIASED_LINES 
1,2,3,4,5,6,7,8,9,10,11,12,13,14,15,16
