#	Name:			PISM00915
#	Creating user name:	baoopengkun
#	Creation time:		Fri Dec 14 10:31:16 2018

#	Modifying user name:	baoopengkun
#	Modification time:	Fri Dec 14 10:49:51 2018

@<TRIPOS>MOLECULE
PISM00915
   43    45     1     1     0
SMALL
GAST_HUCK


@<TRIPOS>ATOM
      1 C1         23.4759   10.5600   -7.7833 C.ar      1 <1>         0.0873 
      2 C2         24.4182   10.2723   -6.7878 C.ar      1 <1>        -0.0294 
      3 C3         25.7569   10.6732   -6.9192 C.ar      1 <1>        -0.0620 
      4 C4         26.1922   11.3788   -8.0485 C.ar      1 <1>        -0.0488 
      5 C5         25.2420   11.6706   -9.0264 C.ar      1 <1>         0.0636 
      6 C6         23.9185   11.2758   -8.8956 C.ar      1 <1>         0.0945 
      7 C7         23.2189   11.7834  -10.1313 C.2       1 <1>         0.2371 
      8 N8         24.1032   12.4202  -10.9229 N.am      1 <1>        -0.1423 
      9 C9         25.3189   12.4001  -10.3446 C.2       1 <1>         0.2414 
     10 O10        22.0326   11.6206  -10.3579 O.2       1 <1>        -0.3740 
     11 O11        26.3382   12.8885  -10.8003 O.2       1 <1>        -0.3670 
     12 C12        23.7840   13.0657  -12.1837 C.3       1 <1>         0.2213 
     13 O13        23.0182   14.2549  -11.9066 O.3       1 <1>        -0.2348 
     14 C14        21.8295   14.0415  -12.4583 C.2       1 <1>         0.2491 
     15 C15        21.6799   12.7674  -13.1534 C.2       1 <1>         0.0288 
     16 C16        22.8666   12.1842  -12.9971 C.2       1 <1>        -0.0059 
     17 C17        20.4724   12.2333  -13.8732 C.3       1 <1>        -0.0323 
     18 O18        20.9328   14.8648  -12.3930 O.2       1 <1>        -0.3691 
     19 N19        22.1892   10.1615   -7.6605 N.pl3     1 <1>        -0.2340 
     20 C20        21.6894    9.1780   -8.3582 C.2       1 <1>         0.2025 
     21 C21        22.5306    8.4124   -9.3561 C.3       1 <1>         0.0430 
     22 O22        20.5238    8.8541   -8.2027 O.2       1 <1>        -0.3787 
     23 C23        21.7948    7.1711   -9.9314 C.3       1 <1>        -0.0356 
     24 C24        22.6851    6.4012  -10.9451 C.3       1 <1>        -0.0538 
     25 C25        21.9476    5.1610  -11.5136 C.3       1 <1>        -0.0651 
     26 H1         24.1044    9.7280   -5.9026 H         1 <1>         0.0578 
     27 H2         26.4678   10.4333   -6.1339 H         1 <1>         0.0632 
     28 H3         27.2251   11.6906   -8.1647 H         1 <1>         0.0584 
     29 H4         24.6877   13.3265  -12.7595 H         1 <1>         0.1152 
     30 H5         23.1366   11.2048  -13.3895 H         1 <1>         0.0702 
     31 H6         20.6918   12.1405  -14.9471 H         1 <1>         0.0347 
     32 H7         19.6165   12.9117  -13.7395 H         1 <1>         0.0347 
     33 H8         20.2090   11.2438  -13.4704 H         1 <1>         0.0347 
     34 H9         21.5820   10.6409   -6.9788 H         1 <1>         0.2134 
     35 H10        23.4568    8.0830   -8.8601 H         1 <1>         0.0511 
     36 H11        22.7926    9.0784  -10.1905 H         1 <1>         0.0511 
     37 H12        20.8697    7.4983  -10.4348 H         1 <1>         0.0290 
     38 H13        21.5181    6.4994   -9.1018 H         1 <1>         0.0290 
     39 H14        23.6123    6.0710  -10.4477 H         1 <1>         0.0264 
     40 H15        22.9594    7.0697  -11.7783 H         1 <1>         0.0264 
     41 H16        21.6825    4.4658  -10.7017 H         1 <1>         0.0230 
     42 H17        22.5941    4.6309  -12.2310 H         1 <1>         0.0230 
     43 H18        21.0257    5.4662  -12.0328 H         1 <1>         0.0230 
@<TRIPOS>BOND
     1    2    1 ar   
     2    2    3 ar   
     3    3    4 ar   
     4    4    5 ar   
     5    6    5 ar   
     6    1    6 ar   
     7    6    7 1    
     8    7    8 am   
     9    9    8 am   
    10    5    9 1    
    11    7   10 2    
    12    9   11 2    
    13    8   12 1    
    14   12   13 1    
    15   13   14 1    
    16   15   14 1    
    17   16   15 2    
    18   12   16 1    
    19   15   17 1    
    20   14   18 2    
    21    1   19 1    
    22   19   20 1    
    23   20   21 1    
    24   20   22 2    
    25   21   23 1    
    26   23   24 1    
    27   24   25 1    
    28    2   26 1    
    29    3   27 1    
    30    4   28 1    
    31   12   29 1    
    32   16   30 1    
    33   17   31 1    
    34   17   32 1    
    35   17   33 1    
    36   19   34 1    
    37   21   35 1    
    38   21   36 1    
    39   23   37 1    
    40   23   38 1    
    41   24   39 1    
    42   24   40 1    
    43   25   41 1    
    44   25   42 1    
    45   25   43 1    
@<TRIPOS>SUBSTRUCTURE
     1 ****        2 TEMP              0 ****  ****    0 ROOT 
@<TRIPOS>NORMAL
@<TRIPOS>FF_PBC
FORCE_FIELD_SETUP_FEATURE Force Field Setup information
v1.0  0 0.000000 0.000000 0.000000 0.000000 0.000000 0.000000 NONE 0 0 0 0 1 0 0 0 0 0 0 0 0
