#	Name:			PISM00550
#	Creating user name:	baoopengkun
#	Creation time:		Sat Dec 15 14:51:35 2018

#	Modifying user name:	baoopengkun
#	Modification time:	Sat Dec 15 14:57:23 2018

@<TRIPOS>MOLECULE
PISM00550
   35    36     1     1     0
SMALL
GAST_HUCK


@<TRIPOS>ATOM
      1 C1          7.1986    8.7143   17.2673 C.3       1 <1>        -0.0559 
      2 C2          8.1551    9.4420   15.0360 C.3       1 <1>        -0.0559 
      3 H1          7.5621    9.6406   17.7379 H         1 <1>         0.0238 
      4 H2          7.9841    7.9495   17.3669 H         1 <1>         0.0238 
      5 H3          6.3181    8.3711   17.8300 H         1 <1>         0.0238 
      6 H4          8.9478    8.6816   15.1100 H         1 <1>         0.0238 
      7 C7          5.7603   10.0490   15.6322 C.3       1 <1>         0.0217 
      8 C8          6.8656    8.9614   15.7647 C.3       1 <1>        -0.0064 
      9 C9          6.3573    7.6473   15.1042 C.3       1 <1>         0.0217 
     10 C10         5.0444    7.2030   15.6896 C.2       1 <1>         0.1095 
     11 C11         4.0894    8.1645   16.2741 C.2       1 <1>         0.0865 
     12 C12         4.4517    9.5947   16.2217 C.2       1 <1>         0.1095 
     13 O13         3.6833   10.4333   16.6638 O.2       1 <1>        -0.4046 
     14 O14         4.7562    6.0156   15.6855 O.2       1 <1>        -0.4046 
     15 C15         2.9373    7.7563   16.8318 C.2       1 <1>         0.0696 
     16 N16         2.5852    6.4946   16.8936 N.pl3     1 <1>        -0.2537 
     17 C17         1.4228    6.0939   17.4672 C.ar      1 <1>         0.0718 
     18 C18         0.9819    6.6382   18.6802 C.ar      1 <1>        -0.0358 
     19 C19        -0.2407    6.2415   19.2305 C.ar      1 <1>        -0.0703 
     20 C20        -1.0137    5.2682   18.5916 C.ar      1 <1>        -0.0724 
     21 C21        -0.5619    4.6940   17.4005 C.ar      1 <1>        -0.0703 
     22 C22         0.6511    5.1078   16.8421 C.ar      1 <1>        -0.0358 
     23 H5          8.5283   10.3754   15.4848 H         1 <1>         0.0238 
     24 H6          7.9563    9.6288   13.9695 H         1 <1>         0.0238 
     25 H7          6.0865   10.9649   16.1497 H         1 <1>         0.0481 
     26 H8          5.5767   10.3007   14.5764 H         1 <1>         0.0481 
     27 H9          7.1028    6.8502   15.2525 H         1 <1>         0.0481 
     28 H10         6.2080    7.7790   14.0217 H         1 <1>         0.0481 
     29 H11         2.2839    8.5318   17.2370 H         1 <1>         0.1321 
     30 H12         3.2027    5.7720   16.4730 H         1 <1>         0.2281 
     31 H13         1.5878    7.3646   19.2115 H         1 <1>         0.0546 
     32 H14        -0.5895    6.6875   20.1571 H         1 <1>         0.0590 
     33 H15        -1.9621    4.9581   19.0202 H         1 <1>         0.0527 
     34 H16        -1.1536    3.9278   16.9086 H         1 <1>         0.0590 
     35 H17         0.9926    4.6617   15.9134 H         1 <1>         0.0546 
@<TRIPOS>BOND
     1    8    1 1    
     2    8    2 1    
     3    1    3 1    
     4    1    4 1    
     5    1    5 1    
     6    2    6 1    
     7    2   23 1    
     8    7    8 1    
     9    8    9 1    
    10    9   10 1    
    11   11   10 1    
    12   12   11 1    
    13    7   12 1    
    14   12   13 2    
    15   10   14 2    
    16   11   15 2    
    17   15   16 1    
    18   16   17 1    
    19   17   18 ar   
    20   18   19 ar   
    21   19   20 ar   
    22   21   20 ar   
    23   22   21 ar   
    24   17   22 ar   
    25    2   24 1    
    26    7   25 1    
    27    7   26 1    
    28    9   27 1    
    29    9   28 1    
    30   15   29 1    
    31   16   30 1    
    32   18   31 1    
    33   19   32 1    
    34   20   33 1    
    35   21   34 1    
    36   22   35 1    
@<TRIPOS>SUBSTRUCTURE
     1 ****        7 TEMP              0 ****  ****    0 ROOT 
@<TRIPOS>NORMAL
@<TRIPOS>FF_PBC
FORCE_FIELD_SETUP_FEATURE Force Field Setup information
v1.0  0 0.000000 0.000000 0.000000 0.000000 0.000000 0.000000 NONE 0 0 0 0 1 0 0 0 0 0 0 0 0
