#	Name:			PISM01169
#	Creating user name:	baoopengkun
#	Creation time:		Tue Dec 18 16:45:55 2018

#	Modifying user name:	baoopengkun
#	Modification time:	Tue Dec 18 16:46:48 2018

@<TRIPOS>MOLECULE
PISM01169
   23    23     1     1     0
SMALL
GAST_HUCK


@<TRIPOS>ATOM
      1 N1          5.1643   35.5812   -5.6415 N.3       1 <1>        -0.3282 
      2 C2          6.3042   35.2560   -4.7562 C.3       1 <1>         0.0029 
      3 C3          7.2898   34.3146   -5.4966 C.3       1 <1>        -0.0067 
      4 C4          8.4766   33.7871   -4.6684 C.ar      1 <1>        -0.0417 
      5 C5          8.7656   34.2142   -3.3651 C.ar      1 <1>        -0.0584 
      6 C6          9.8539   33.6803   -2.6681 C.ar      1 <1>        -0.0410 
      7 C7         10.6662   32.7103   -3.2607 C.ar      1 <1>         0.1145 
      8 C8         10.3973   32.2952   -4.5669 C.ar      1 <1>        -0.0410 
      9 C9          9.3077   32.8284   -5.2611 C.ar      1 <1>        -0.0584 
     10 S10        12.0553   32.0390   -2.3819 S.o2      1 <1>         0.1441 
     11 O11        13.2717   32.5456   -2.9864 O.2       1 <1>        -0.1388 
     12 O12        11.8368   32.1937   -0.9567 O.2       1 <1>        -0.1388 
     13 F13        11.9094   30.5181   -2.7449 F         1 <1>        -0.0570 
     14 H1          5.4983   36.1190   -6.5195 H         1 <1>         0.1184 
     15 H2          4.4279   36.1764   -5.1164 H         1 <1>         0.1184 
     16 H3          5.9149   34.7407   -3.8618 H         1 <1>         0.0444 
     17 H4          6.8155   36.1837   -4.4461 H         1 <1>         0.0444 
     18 H5          7.7004   34.8428   -6.3716 H         1 <1>         0.0438 
     19 H6          6.7142   33.4468   -5.8570 H         1 <1>         0.0438 
     20 H7          8.1592   34.9627   -2.8697 H         1 <1>         0.0557 
     21 H8         10.0706   34.0207   -1.6607 H         1 <1>         0.0619 
     22 H9         11.0371   31.5584   -5.0417 H         1 <1>         0.0619 
     23 H10         9.1087   32.4913   -6.2739 H         1 <1>         0.0557 
@<TRIPOS>BOND
     1    2    1 1    
     2    2    3 1    
     3    3    4 1    
     4    4    5 ar   
     5    5    6 ar   
     6    6    7 ar   
     7    7    8 ar   
     8    8    9 ar   
     9    4    9 ar   
    10    7   10 1    
    11   10   11 2    
    12   10   12 2    
    13   10   13 1    
    14    1   14 1    
    15    1   15 1    
    16    2   16 1    
    17    2   17 1    
    18    3   18 1    
    19    3   19 1    
    20    5   20 1    
    21    6   21 1    
    22    8   22 1    
    23    9   23 1    
@<TRIPOS>SUBSTRUCTURE
     1 ****        2 TEMP              0 ****  ****    0 ROOT 
@<TRIPOS>NORMAL
@<TRIPOS>FF_PBC
FORCE_FIELD_SETUP_FEATURE Force Field Setup information
v1.0  0 0.000000 0.000000 0.000000 0.000000 0.000000 0.000000 NONE 0 0 0 0 1 0 0 0 0 0 0 0 0
