#	Name:			PISM00259
#	Creating user name:	14062
#	Creation time:		Sat Apr 06 00:08:10 2019

#	Modifying user name:	14062
#	Modification time:	Sat Apr 06 00:11:37 2019

@<TRIPOS>MOLECULE
PISM00259
   41    42     1     1     0
SMALL
GAST_HUCK


@<TRIPOS>ATOM
      1 C1         -7.2034   -3.7164   -5.6271 C.ar      1 <1>        -0.0131 
      2 C2         -6.0267   -3.2746   -5.0180 C.ar      1 <1>         0.1059 
      3 C3         -5.9274   -1.9557   -4.5581 C.ar      1 <1>         0.0813 
      4 C4         -6.9955   -1.0747   -4.7523 C.ar      1 <1>        -0.0423 
      5 C5         -8.1734   -1.5166   -5.3607 C.ar      1 <1>         0.0461 
      6 C6         -8.2802   -2.8422   -5.7913 C.ar      1 <1>         0.0843 
      7 N7         -4.8062   -1.5144   -3.9410 N.pl3     1 <1>        -0.2459 
      8 C8         -4.4327   -1.9111   -2.7522 C.2       1 <1>         0.2297 
      9 C9         -5.2357   -2.8872   -1.9076 C.3       1 <1>         0.1709 
     10 O10        -4.4046   -3.4453   -0.8670 O.3       1 <1>        -0.2940 
     11 C11        -5.0126   -4.3969   -0.0482 C.ar      1 <1>         0.0947 
     12 C12        -5.3805   -4.0562    1.2559 C.ar      1 <1>        -0.0329 
     13 C13        -6.0200   -4.9945    2.0714 C.ar      1 <1>        -0.0706 
     14 C14        -6.2845   -6.2776    1.5830 C.ar      1 <1>        -0.0729 
     15 C15        -5.8991   -6.6255    0.2848 C.ar      1 <1>        -0.0706 
     16 C16        -5.2541   -5.6879   -0.5273 C.ar      1 <1>        -0.0329 
     17 O17        -3.3978   -1.4625   -2.2857 O.2       1 <1>        -0.3782 
     18 C18        -6.4452   -2.1445   -1.2820 C.3       1 <1>        -0.0160 
     19 O19        -9.4577   -3.2953   -6.3850 O.3       1 <1>        -0.3306 
     20 C20       -10.3983   -3.8493   -5.4513 C.3       1 <1>         0.0569 
     21 Cl21       -9.5120   -0.4077   -5.5787 Cl        1 <1>        -0.0919 
     22 O22        -4.9563   -4.1573   -4.8674 O.3       1 <1>        -0.3279 
     23 H1         -7.2807   -4.7410   -5.9733 H         1 <1>         0.0435 
     24 H2         -6.9113   -0.0438   -4.4255 H         1 <1>         0.0476 
     25 H3         -4.2231   -0.8164   -4.4273 H         1 <1>         0.2048 
     26 H4         -5.5942   -3.7178   -2.5293 H         1 <1>         0.0900 
     27 H5         -5.1687   -3.0599    1.6294 H         1 <1>         0.0542 
     28 H6         -6.3111   -4.7268    3.0826 H         1 <1>         0.0589 
     29 H7         -6.7885   -7.0047    2.2126 H         1 <1>         0.0523 
     30 H8         -6.0997   -7.6237   -0.0924 H         1 <1>         0.0589 
     31 H9         -4.9388   -5.9614   -1.5287 H         1 <1>         0.0542 
     32 H10        -7.0791   -2.8386   -0.7095 H         1 <1>         0.0284 
     33 H11        -7.0688   -1.6760   -2.0568 H         1 <1>         0.0284 
     34 H12        -6.0782   -1.3600   -0.6028 H         1 <1>         0.0284 
     35 H13       -11.2885   -4.1738   -6.0099 H         1 <1>         0.0573 
     36 H14       -10.7033   -3.0968   -4.7073 H         1 <1>         0.0573 
     37 H15        -9.9686   -4.7211   -4.9334 H         1 <1>         0.0573 
     38 C38        -3.9139   -4.0021   -5.8433 C.3       1 <1>         0.0567 
     39 H16        -4.3064   -4.1684   -6.8587 H         1 <1>         0.0573 
     40 H17        -3.1365   -4.7526   -5.6377 H         1 <1>         0.0573 
     41 H18        -3.4585   -3.0017   -5.7875 H         1 <1>         0.0573 
@<TRIPOS>BOND
     1    2    1 ar   
     2    2    3 ar   
     3    3    4 ar   
     4    4    5 ar   
     5    5    6 ar   
     6    1    6 ar   
     7    3    7 1    
     8    7    8 1    
     9    8    9 1    
    10    9   10 1    
    11   10   11 1    
    12   11   12 ar   
    13   12   13 ar   
    14   13   14 ar   
    15   14   15 ar   
    16   15   16 ar   
    17   11   16 ar   
    18    8   17 2    
    19    9   18 1    
    20    6   19 1    
    21   19   20 1    
    22    5   21 1    
    23    2   22 1    
    24    1   23 1    
    25    4   24 1    
    26    7   25 1    
    27    9   26 1    
    28   12   27 1    
    29   13   28 1    
    30   14   29 1    
    31   15   30 1    
    32   16   31 1    
    33   18   32 1    
    34   18   33 1    
    35   18   34 1    
    36   20   35 1    
    37   20   36 1    
    38   20   37 1    
    39   22   38 1    
    40   38   39 1    
    41   38   40 1    
    42   38   41 1    
@<TRIPOS>SUBSTRUCTURE
     1 ****        2 TEMP              0 ****  ****    0 ROOT 
@<TRIPOS>NORMAL
@<TRIPOS>FF_PBC
FORCE_FIELD_SETUP_FEATURE Force Field Setup information
v1.0  0 0.000000 0.000000 0.000000 0.000000 0.000000 0.000000 NONE 0 0 0 0 1 0 0 0 0 0 0 0 0
