#	Name:			PISM00836
#	Creating user name:	baoopengkun
#	Creation time:		Sat Dec 15 03:03:29 2018

#	Modifying user name:	baoopengkun
#	Modification time:	Sat Dec 15 03:04:34 2018

@<TRIPOS>MOLECULE
PISM00836
   17    18     1     1     0
SMALL
GAST_HUCK


@<TRIPOS>ATOM
      1 C1          3.2943   16.2220  -46.0462 C.2       1 <1>         0.1482 
      2 O2          2.6644   17.1279  -45.2688 O.3       1 <1>        -0.2353 
      3 C3          2.3341   18.3670  -45.7019 C.2       1 <1>         0.1119 
      4 C4          2.6128   18.7851  -46.9459 C.2       1 <1>        -0.0277 
      5 C5          3.2957   17.8357  -47.8231 C.2       1 <1>        -0.0177 
      6 C6          3.6231   16.5243  -47.3040 C.2       1 <1>         0.1538 
      7 C7          3.7466   17.8193  -49.0732 C.2       1 <1>        -0.0179 
      8 C8          4.3182   16.4670  -49.2019 C.2       1 <1>         0.2132 
      9 O9          4.8351   16.0787  -50.2352 O.2       1 <1>        -0.4071 
     10 O10         4.2447   15.6747  -48.1227 O.3       1 <1>        -0.2384 
     11 C11         3.6760   18.9158  -50.0996 C.3       1 <1>        -0.0565 
     12 H1          3.5371   15.2378  -45.6479 H         1 <1>         0.1192 
     13 H2          1.8256   19.0344  -45.0052 H         1 <1>         0.1271 
     14 H3          2.3508   19.7811  -47.3032 H         1 <1>         0.0474 
     15 H4          3.9188   18.5187  -51.0967 H         1 <1>         0.0266 
     16 H5          4.3968   19.7059  -49.8421 H         1 <1>         0.0266 
     17 H6          2.6628   19.3441  -50.1227 H         1 <1>         0.0266 
@<TRIPOS>BOND
     1    2    1 1    
     2    2    3 1    
     3    3    4 2    
     4    4    5 1    
     5    5    6 1    
     6    1    6 2    
     7    5    7 2    
     8    7    8 1    
     9    8    9 2    
    10    8   10 1    
    11    6   10 1    
    12    7   11 1    
    13    1   12 1    
    14    3   13 1    
    15    4   14 1    
    16   11   15 1    
    17   11   16 1    
    18   11   17 1    
@<TRIPOS>SUBSTRUCTURE
     1 ****        2 TEMP              0 ****  ****    0 ROOT 
@<TRIPOS>NORMAL
@<TRIPOS>FF_PBC
FORCE_FIELD_SETUP_FEATURE Force Field Setup information
v1.0  0 0.000000 0.000000 0.000000 0.000000 0.000000 0.000000 NONE 0 0 0 0 1 0 0 0 0 0 0 0 0
