#	Name:			PISM00911.1
#	Creating user name:	baoopengkun
#	Creation time:		Fri Dec 14 10:31:16 2018

#	Modifying user name:	baoopengkun
#	Modification time:	Fri Dec 14 10:42:03 2018

@<TRIPOS>MOLECULE
PISM00911.1
   33    36     1     1     0
SMALL
GAST_HUCK


@<TRIPOS>ATOM
      1 C1         25.2861   18.7935  -13.1520 C.ar      1 <1>        -0.0300 
      2 C2         25.4114   20.1292  -12.7404 C.ar      1 <1>        -0.0083 
      3 C3         24.8539   20.5636  -11.5233 C.ar      1 <1>        -0.0083 
      4 C4         24.1574   19.6720  -10.6931 C.ar      1 <1>        -0.0300 
      5 C5         24.0414   18.3499  -11.1176 C.ar      1 <1>         0.0724 
      6 C6         24.5920   17.9217  -12.3154 C.ar      1 <1>         0.0724 
      7 C7         24.2589   16.4539  -12.4151 C.2       1 <1>         0.2424 
      8 N8         23.5578   16.0746  -11.3288 N.am      1 <1>        -0.1406 
      9 C9         23.3835   17.1333  -10.5155 C.2       1 <1>         0.2424 
     10 O10        24.5908   15.7432  -13.3481 O.2       1 <1>        -0.3691 
     11 O11        22.7902   17.1317   -9.4508 O.2       1 <1>        -0.3691 
     12 C12        23.0294   14.7425  -11.0954 C.3       1 <1>         0.2217 
     13 O13        21.9241   14.5268  -11.9952 O.3       1 <1>        -0.2347 
     14 C14        22.3034   13.5260  -12.7807 C.2       1 <1>         0.2491 
     15 C15        23.6217   12.9699  -12.4967 C.2       1 <1>         0.0288 
     16 C16        24.0557   13.7005  -11.4714 C.2       1 <1>        -0.0058 
     17 C17        24.3259   11.8469  -13.2072 C.3       1 <1>        -0.0323 
     18 O18        21.5883   13.0989  -13.6709 O.2       1 <1>        -0.3691 
     19 C19        24.9968   21.9019  -11.1374 C.ar      1 <1>        -0.0356 
     20 C20        25.6863   22.8065  -11.9486 C.ar      1 <1>         0.0581 
     21 C21        26.2381   22.3757  -13.1576 C.ar      1 <1>         0.0581 
     22 C22        26.0989   21.0420  -13.5495 C.ar      1 <1>        -0.0356 
     23 H1         25.7068   18.4317  -14.0846 H         1 <1>         0.0702 
     24 H2         23.7171   19.9805   -9.7504 H         1 <1>         0.0702 
     25 H3         22.6972   14.6033  -10.0530 H         1 <1>         0.1153 
     26 H4         25.0183   13.5754  -10.9775 H         1 <1>         0.0702 
     27 H5         24.1340   10.9012  -12.6794 H         1 <1>         0.0347 
     28 H6         25.4101   12.0329  -13.2348 H         1 <1>         0.0347 
     29 H7         23.9534   11.7644  -14.2393 H         1 <1>         0.0347 
     30 H8         24.5734   22.2545  -10.2023 H         1 <1>         0.0646 
     31 Cl31       25.8539   24.4759  -11.4429 Cl        1 <1>        -0.0680 
     32 Cl32       27.1046   23.4990  -14.1864 Cl        1 <1>        -0.0680 
     33 H11        26.5332   20.7252  -14.4923 H         1 <1>         0.0646 
@<TRIPOS>BOND
     1    2    1 ar   
     2    2    3 ar   
     3    3    4 ar   
     4    4    5 ar   
     5    5    6 ar   
     6    1    6 ar   
     7    6    7 1    
     8    7    8 am   
     9    8    9 am   
    10    5    9 1    
    11    7   10 2    
    12    9   11 2    
    13    8   12 1    
    14   12   13 1    
    15   13   14 1    
    16   14   15 1    
    17   15   16 2    
    18   12   16 1    
    19   15   17 1    
    20   14   18 2    
    21    3   19 ar   
    22   19   20 ar   
    23   20   21 ar   
    24   21   22 ar   
    25    2   22 ar   
    26    1   23 1    
    27    4   24 1    
    28   12   25 1    
    29   16   26 1    
    30   17   27 1    
    31   17   28 1    
    32   17   29 1    
    33   19   30 1    
    34   20   31 1    
    35   21   32 1    
    36   22   33 1    
@<TRIPOS>SUBSTRUCTURE
     1 ****        2 TEMP              0 ****  ****    0 ROOT 
@<TRIPOS>NORMAL
@<TRIPOS>FF_PBC
FORCE_FIELD_SETUP_FEATURE Force Field Setup information
v1.0  0 0.000000 0.000000 0.000000 0.000000 0.000000 0.000000 NONE 0 0 0 0 1 0 0 0 0 0 0 0 0
