#	Name:			PISM01035.3
#	Creating user name:	malab
#	Creation time:		Tue Jul 02 17:50:48 2019

#	Modifying user name:	malab
#	Modification time:	Tue Jul 02 17:51:11 2019

@<TRIPOS>MOLECULE
PISM01035.3
   43    44     1     1     0
SMALL
GAST_HUCK


@<TRIPOS>ATOM
      1 N1         -8.3815    1.4197   -4.8322 N.pl3     1 <1>        -0.1707 
      2 C2         -8.6295    0.2502   -4.3239 C.2       1 <1>         0.1283 
      3 N3         -9.7902   -0.1174   -4.6264 N.2       1 <1>        -0.2870 
      4 C4        -10.4361    0.8738   -5.4407 C.2       1 <1>         0.0618 
      5 N5         -9.5114    1.7565   -5.5162 N.2       1 <1>        -0.1897 
      6 C6         -7.1405    2.1832   -4.7531 C.3       1 <1>         0.1213 
      7 C7         -6.8086    2.6829   -3.3088 C.3       1 <1>         0.0944 
      8 O8         -5.4296    3.1048   -3.3595 O.3       1 <1>        -0.3879 
      9 C9         -7.7304    3.7657   -2.6303 C.3       1 <1>        -0.0085 
     10 C10        -7.5532    3.6926   -1.0779 C.3       1 <1>        -0.0576 
     11 C11        -7.3629    5.2176   -3.0668 C.3       1 <1>        -0.0576 
     12 C12        -9.2375    3.5091   -2.9262 C.3       1 <1>        -0.0576 
     13 C13        -7.0686    3.2592   -5.8703 C.3       1 <1>         0.0132 
     14 C14        -6.9477    2.5889   -7.2486 C.ar      1 <1>        -0.0465 
     15 C15        -5.7119    2.0847   -7.6695 C.ar      1 <1>        -0.0667 
     16 C16        -5.5877    1.4512   -8.9093 C.ar      1 <1>        -0.0671 
     17 C17        -6.6983    1.3201   -9.7501 C.ar      1 <1>        -0.0528 
     18 C18        -7.9310    1.8351   -9.3362 C.ar      1 <1>        -0.0671 
     19 C19        -8.0540    2.4715   -8.0979 C.ar      1 <1>        -0.0667 
     20 C20        -6.5846    0.6237  -11.1115 C.3       1 <1>        -0.0343 
     21 H1         -7.9478   -0.3499   -3.7225 H         1 <1>         0.1361 
     22 H2        -11.4340    0.8766   -5.8765 H         1 <1>         0.0864 
     23 H3         -6.3409    1.4598   -4.9915 H         1 <1>         0.0727 
     24 H4         -6.8626    1.7701   -2.6900 H         1 <1>         0.0633 
     25 H5         -5.0361    3.2785   -2.5111 H         1 <1>         0.2099 
     26 H6         -6.5139    3.8848   -0.7760 H         1 <1>         0.0236 
     27 H7         -7.8441    2.7022   -0.6947 H         1 <1>         0.0236 
     28 H8         -8.1837    4.4404   -0.5722 H         1 <1>         0.0236 
     29 H9         -7.5053    5.3804   -4.1407 H         1 <1>         0.0236 
     30 H10        -6.3159    5.4513   -2.8236 H         1 <1>         0.0236 
     31 H11        -7.9989    5.9466   -2.5415 H         1 <1>         0.0236 
     32 H12        -9.4725    3.6998   -3.9806 H         1 <1>         0.0236 
     33 H13        -9.8748    4.1807   -2.3307 H         1 <1>         0.0236 
     34 H14        -9.5119    2.4724   -2.6790 H         1 <1>         0.0236 
     35 H15        -6.1884    3.9043   -5.7231 H         1 <1>         0.0446 
     36 H16        -7.9661    3.8912   -5.8590 H         1 <1>         0.0446 
     37 H17        -4.8389    2.1826   -7.0316 H         1 <1>         0.0540 
     38 H18        -4.6218    1.0608   -9.2132 H         1 <1>         0.0540 
     39 H19        -8.8010    1.7407   -9.9784 H         1 <1>         0.0540 
     40 H20        -9.0183    2.8729   -7.8035 H         1 <1>         0.0540 
     41 H21        -7.0538   -0.3692  -11.0427 H         1 <1>         0.0378 
     42 H22        -5.5355    0.5015  -11.4203 H         1 <1>         0.0378 
     43 H23        -7.1058    1.2152  -11.8794 H         1 <1>         0.0378 
@<TRIPOS>BOND
     1    2    1 1    
     2    2    3 2    
     3    3    4 1    
     4    4    5 2    
     5    1    5 1    
     6    1    6 1    
     7    6    7 1    
     8    7    8 1    
     9    7    9 1    
    10    9   10 1    
    11    9   11 1    
    12    9   12 1    
    13    6   13 1    
    14   13   14 1    
    15   14   15 ar   
    16   15   16 ar   
    17   16   17 ar   
    18   17   18 ar   
    19   18   19 ar   
    20   14   19 ar   
    21   17   20 1    
    22    2   21 1    
    23    4   22 1    
    24    6   23 1    
    25    7   24 1    
    26    8   25 1    
    27   10   26 1    
    28   10   27 1    
    29   10   28 1    
    30   11   29 1    
    31   11   30 1    
    32   11   31 1    
    33   12   32 1    
    34   12   33 1    
    35   12   34 1    
    36   13   35 1    
    37   13   36 1    
    38   15   37 1    
    39   16   38 1    
    40   18   39 1    
    41   19   40 1    
    42   20   41 1    
    43   20   42 1    
    44   20   43 1    
@<TRIPOS>SUBSTRUCTURE
     1 ****        2 TEMP              0 ****  ****    0 ROOT 
@<TRIPOS>NORMAL
@<TRIPOS>FF_PBC
FORCE_FIELD_SETUP_FEATURE Force Field Setup information
v1.0  0 0.000000 0.000000 0.000000 0.000000 0.000000 0.000000 NONE 0 0 0 0 1 0 0 0 0 0 0 0 0
