#	Name:			PISM00568
#	Creating user name:	baoopengkun
#	Creation time:		Wed Dec 19 10:55:03 2018

#	Modifying user name:	baoopengkun
#	Modification time:	Wed Dec 19 11:07:13 2018

@<TRIPOS>MOLECULE
PISM00568
   16    16     1     1     0
SMALL
USER_CHARGES


@<TRIPOS>ATOM
      1 O1         18.9327   27.8593  -38.6538 O.3       1 <1>         0.0000 
      2 C2         21.4320   28.3844  -41.9949 C.ar      1 <1>         0.0000 
      3 C3         20.5207   27.3277  -41.9484 C.ar      1 <1>         0.0000 
      4 C4         19.6907   27.1554  -40.8344 C.ar      1 <1>         0.0000 
      5 C5         19.7730   28.0491  -39.7576 C.ar      1 <1>         0.0000 
      6 C6         20.6908   29.1108  -39.8058 C.ar      1 <1>         0.0000 
      7 C7         21.5151   29.2740  -40.9226 C.ar      1 <1>         0.0000 
      8 H1         19.0135   28.4929  -37.9522 H         1 <1>         0.0000 
      9 C9         18.7109   25.9996  -40.8091 C.2       1 <1>         0.0000 
     10 O10        18.6574   25.2376  -41.7634 O.2       1 <1>         0.0000 
     11 O11        17.9136   25.8184  -39.7499 O.3       1 <1>         0.0000 
     12 Cl12       22.4672   28.5933  -43.3930 Cl        1 <1>         0.0000 
     13 H3         20.4664   26.6434  -42.7882 H         1 <1>         0.0000 
     14 Cl14       20.8452   30.2632  -38.4908 Cl        1 <1>         0.0000 
     15 H5         17.3348   25.0670  -39.8279 H         1 <1>         0.0000 
     16 H16        22.2233   30.0950  -40.9581 H         1 <1>         0.0000 
@<TRIPOS>BOND
     1    5    1 1    
     2    2    3 ar   
     3    3    4 ar   
     4    4    5 ar   
     5    5    6 ar   
     6    6    7 ar   
     7    2    7 ar   
     8    1    8 1    
     9    4    9 1    
    10    9   10 2    
    11    9   11 1    
    12    2   12 1    
    13    3   13 1    
    14    6   14 1    
    15   11   15 1    
    16    7   16 1    
@<TRIPOS>SUBSTRUCTURE
     1 ****        2 TEMP              0 ****  ****    0 ROOT 
@<TRIPOS>NORMAL
@<TRIPOS>FF_PBC
FORCE_FIELD_SETUP_FEATURE Force Field Setup information
v1.0  0 0.000000 0.000000 0.000000 0.000000 0.000000 0.000000 NONE 0 0 0 0 0 0 0 0 0 0 0 0 0
