#	Name:			PISM00341
#	Creating user name:	malab
#	Creation time:		Tue Apr 02 17:57:29 2019

#	Modifying user name:	malab
#	Modification time:	Tue Apr 02 17:57:54 2019

@<TRIPOS>MOLECULE
PISM00341
   64    64     1     1     0
SMALL
GAST_HUCK


@<TRIPOS>ATOM
      1 C1          2.3742   -0.9482  -11.8383 C.3       1 <1>        -0.0486 
      2 C2          1.6331   -2.1208  -11.1312 C.3       1 <1>         0.0225 
      3 C3          1.6355   -1.9056   -9.6449 C.2       1 <1>         0.1783 
      4 C4          1.6772   -0.5488   -9.0696 C.2       1 <1>         0.1080 
      5 C5          1.7353    0.5443   -9.8454 C.2       1 <1>        -0.0545 
      6 C6          1.7861    0.4242  -11.3553 C.3       1 <1>         0.0241 
      7 C7          3.8968   -1.0644  -11.5042 C.3       1 <1>        -0.0722 
      8 C8          2.1977   -1.0920  -13.3786 C.3       1 <1>        -0.0722 
      9 O9          1.6046   -2.8756   -8.9039 O.2       1 <1>        -0.3530 
     10 S10         1.6518   -0.4225   -7.2873 S.3       1 <1>        -0.0484 
     11 C11         1.7436    1.9561   -9.2939 C.3       1 <1>        -0.0414 
     12 C12         0.3447    0.6156  -11.7795 C.2       1 <1>        -0.0993 
     13 C13        -0.0979    1.6555  -12.4996 C.2       1 <1>        -0.0245 
     14 C14        -1.5155    1.7908  -12.8950 C.2       1 <1>         0.0167 
     15 C15        -2.2010    0.5902  -13.5083 C.3       1 <1>        -0.0145 
     16 C16        -2.1943    2.9376  -12.7310 C.2       1 <1>         0.0580 
     17 C17        -1.6682    4.1815  -12.1179 C.2       1 <1>         0.2688 
     18 O18        -0.5901    4.1919  -11.5513 O.2       1 <1>        -0.3498 
     19 O19        -2.3549    5.3285  -12.1529 O.3       1 <1>        -0.2928 
     20 O20         2.5479    1.5150  -11.9052 O.3       1 <1>        -0.4725 
     21 C21         3.4634   -0.4668   -7.0999 C.3       1 <1>         0.0189 
     22 C22         3.8125   -0.1934   -5.6149 C.3       1 <1>        -0.0402 
     23 C23         5.3472   -0.2266   -5.3788 C.3       1 <1>        -0.0520 
     24 C24         5.6954    0.0838   -3.8971 C.3       1 <1>        -0.0530 
     25 C25         7.2277    0.0271   -3.6485 C.3       1 <1>        -0.0531 
     26 C26         7.5724    0.3592   -2.1707 C.3       1 <1>        -0.0533 
     27 C27         9.1022    0.2851   -1.9138 C.3       1 <1>        -0.0559 
     28 H1          2.1337   -3.0754  -11.3573 H         1 <1>         0.0479 
     29 H2          0.5904   -2.2263  -11.4609 H         1 <1>         0.0479 
     30 H3          4.2700   -2.0794  -11.7098 H         1 <1>         0.0220 
     31 H4          4.0882   -0.8411  -10.4441 H         1 <1>         0.0220 
     32 H5          4.5010   -0.3806  -12.1179 H         1 <1>         0.0220 
     33 H6          2.6923   -0.2577  -13.8992 H         1 <1>         0.0220 
     34 H7          1.1347   -1.0903  -13.6623 H         1 <1>         0.0220 
     35 H8          2.6431   -2.0350  -13.7317 H         1 <1>         0.0220 
     36 H9          1.3409    2.0323   -8.2747 H         1 <1>         0.0386 
     37 H10         1.1303    2.6099   -9.9324 H         1 <1>         0.0386 
     38 H11         2.7735    2.3415   -9.2876 H         1 <1>         0.0386 
     39 H12        -0.3920   -0.1227  -11.4687 H         1 <1>         0.0493 
     40 H13         0.5863    2.4417  -12.8174 H         1 <1>         0.1042 
     41 H14        -2.7958    0.8822  -14.3872 H         1 <1>         0.0429 
     42 H15        -2.8663    0.1279  -12.7637 H         1 <1>         0.0429 
     43 H16        -1.4659   -0.1604  -13.8366 H         1 <1>         0.0429 
     44 H17        -3.2300    2.9588  -13.0681 H         1 <1>         0.0917 
     45 H18        -3.1875    5.2867  -12.6052 H         1 <1>         0.2516 
     46 H19         3.4346    1.5834  -11.5728 H         1 <1>         0.1785 
     47 H20         3.9175    0.3027   -7.7442 H         1 <1>         0.0422 
     48 H21         3.8287   -1.4582   -7.4116 H         1 <1>         0.0422 
     49 H22         3.3252   -0.9540   -4.9822 H         1 <1>         0.0276 
     50 H23         3.4179    0.7965   -5.3321 H         1 <1>         0.0276 
     51 H24         5.8345    0.5173   -6.0305 H         1 <1>         0.0266 
     52 H25         5.7328   -1.2247   -5.6447 H         1 <1>         0.0266 
     53 H26         5.1929   -0.6483   -3.2434 H         1 <1>         0.0265 
     54 H27         5.3214    1.0886   -3.6407 H         1 <1>         0.0265 
     55 H28         7.7332    0.7494   -4.3104 H         1 <1>         0.0265 
     56 H29         7.5986   -0.9821   -3.8913 H         1 <1>         0.0265 
     57 H30         7.0591   -0.3549   -1.5063 H         1 <1>         0.0265 
     58 H31         7.2127    1.3734   -1.9316 H         1 <1>         0.0265 
     59 H32         9.4663   -0.7309   -2.1414 H         1 <1>         0.0263 
     60 C60         9.4431    0.6264   -0.4396 C.3       1 <1>        -0.0653 
     61 H34         9.6241    0.9949   -2.5773 H         1 <1>         0.0263 
     62 H33        10.5308    0.5624   -0.2784 H         1 <1>         0.0230 
     63 H35         8.9460   -0.0794    0.2442 H         1 <1>         0.0230 
     64 H36         9.1126    1.6481   -0.1947 H         1 <1>         0.0230 
@<TRIPOS>BOND
     1    2    1 1    
     2    2    3 1    
     3    3    4 1    
     4    4    5 2    
     5    5    6 1    
     6    1    6 1    
     7    1    7 1    
     8    1    8 1    
     9    3    9 2    
    10    4   10 1    
    11    5   11 1    
    12    6   12 1    
    13   12   13 2    
    14   13   14 1    
    15   14   15 1    
    16   14   16 2    
    17   16   17 1    
    18   17   18 2    
    19   17   19 1    
    20    6   20 1    
    21   10   21 1    
    22   21   22 1    
    23   22   23 1    
    24   23   24 1    
    25   24   25 1    
    26   25   26 1    
    27   26   27 1    
    28    2   28 1    
    29    2   29 1    
    30    7   30 1    
    31    7   31 1    
    32    7   32 1    
    33    8   33 1    
    34    8   34 1    
    35    8   35 1    
    36   11   36 1    
    37   11   37 1    
    38   11   38 1    
    39   12   39 1    
    40   13   40 1    
    41   15   41 1    
    42   15   42 1    
    43   15   43 1    
    44   16   44 1    
    45   19   45 1    
    46   20   46 1    
    47   21   47 1    
    48   21   48 1    
    49   22   49 1    
    50   22   50 1    
    51   23   51 1    
    52   23   52 1    
    53   24   53 1    
    54   24   54 1    
    55   25   55 1    
    56   25   56 1    
    57   26   57 1    
    58   26   58 1    
    59   27   59 1    
    60   27   60 1    
    61   27   61 1    
    62   60   62 1    
    63   60   63 1    
    64   60   64 1    
@<TRIPOS>SUBSTRUCTURE
     1 ****        2 TEMP              0 ****  ****    0 ROOT 
@<TRIPOS>NORMAL
@<TRIPOS>FF_PBC
FORCE_FIELD_SETUP_FEATURE Force Field Setup information
v1.0  0 0.000000 0.000000 0.000000 0.000000 0.000000 0.000000 NONE 0 0 0 0 1 0 0 0 0 0 0 0 0
