#	Name:			PISM00518
#	Creating user name:	malab
#	Creation time:		Fri Apr 05 22:31:20 2019

#	Modifying user name:	malab
#	Modification time:	Fri Apr 05 22:32:13 2019

@<TRIPOS>MOLECULE
PISM00518
   52    52     1     1     0
SMALL
GAST_HUCK


@<TRIPOS>ATOM
      1 C1         18.7764    6.0423    1.3203 C.2       1 <1>         0.1101 
      2 C2         20.1617    6.2450    1.8680 C.3       1 <1>         0.0221 
      3 C3         20.8575    6.9711    0.6905 C.3       1 <1>        -0.0297 
      4 C4         20.1060    6.4668   -0.5736 C.3       1 <1>        -0.0019 
      5 C5         18.6164    6.4563   -0.1182 C.3       1 <1>         0.0440 
      6 O6         17.8654    5.5664    1.9799 O.2       1 <1>        -0.3911 
      7 C7         17.9184    7.8469   -0.1767 C.3       1 <1>        -0.0173 
      8 C8         17.9356    8.4413   -1.5686 C.2       1 <1>        -0.0961 
      9 C9         17.0115    8.2832   -2.5314 C.2       1 <1>        -0.0988 
     10 C10        15.7455    7.4586   -2.4648 C.3       1 <1>        -0.0393 
     11 C11        15.6181    6.5329   -3.7038 C.3       1 <1>        -0.0586 
     12 H1         20.6214    5.2630    2.0628 H         1 <1>         0.0494 
     13 C13        20.0482    4.5485   -2.2961 C.2       1 <1>         0.1788 
     14 O14        19.0222    5.0442   -2.7323 O.2       1 <1>        -0.3969 
     15 N15        20.7078    3.5424   -2.9247 N.am      1 <1>        -0.2640 
     16 C16        20.1896    2.9186   -4.1453 C.3       1 <1>         0.1445 
     17 C17        19.4508    3.8716   -5.0597 C.2       1 <1>         0.2573 
     18 O18        18.3575    3.3892   -5.6622 O.3       1 <1>        -0.2910 
     19 O19        19.8544    5.0106   -5.2412 O.2       1 <1>        -0.3680 
     20 C20        19.3920    1.6322   -3.7658 C.3       1 <1>        -0.0023 
     21 C21        18.1795    1.9667   -2.8422 C.3       1 <1>        -0.0490 
     22 C22        17.2759    0.7383   -2.5466 C.3       1 <1>        -0.0648 
     23 C23        20.3439    0.5924   -3.1059 C.3       1 <1>        -0.0581 
     24 H2         20.1682    6.8414    2.7938 H         1 <1>         0.0494 
     25 H3         21.9419    6.7769    0.6734 H         1 <1>         0.0296 
     26 H4         20.7177    8.0607    0.7922 H         1 <1>         0.0296 
     27 H5         20.2787    7.1358   -1.4322 H         1 <1>         0.0356 
     28 C28        20.6218    5.0551   -0.9912 C.3       1 <1>         0.0428 
     29 H7         18.0099    5.7227   -0.6691 H         1 <1>         0.0554 
     30 H8         18.4123    8.5606    0.5016 H         1 <1>         0.0416 
     31 H9         16.8879    7.7476    0.1936 H         1 <1>         0.0416 
     32 H10        18.7970    9.0706   -1.8106 H         1 <1>         0.0452 
     33 H11        17.1817    8.8102   -3.4716 H         1 <1>         0.0450 
     34 H12        14.8899    8.1536   -2.4523 H         1 <1>         0.0385 
     35 H13        15.6917    6.8325   -1.5625 H         1 <1>         0.0385 
     36 H14        16.4441    5.8047   -3.7172 H         1 <1>         0.0249 
     37 H15        15.6482    7.1184   -4.6366 H         1 <1>         0.0249 
     38 H16        14.6638    5.9821   -3.6746 H         1 <1>         0.0249 
     39 H6         20.4025    4.3102   -0.2116 H         1 <1>         0.0507 
     40 H18        21.5497    3.1626   -2.5347 H         1 <1>         0.1884 
     41 H19        21.0498    2.6177   -4.7671 H         1 <1>         0.0819 
     42 H20        17.9344    4.0177   -6.2380 H         1 <1>         0.2540 
     43 H21        19.0159    1.1766   -4.6990 H         1 <1>         0.0346 
     44 H22        17.5555    2.7356   -3.3257 H         1 <1>         0.0267 
     45 H23        18.5296    2.3734   -1.8795 H         1 <1>         0.0267 
     46 H24        16.3684    1.0591   -2.0085 H         1 <1>         0.0230 
     47 H25        17.7986    0.0035   -1.9150 H         1 <1>         0.0230 
     48 H26        16.9687    0.2492   -3.4850 H         1 <1>         0.0230 
     49 H27        21.2587    0.4694   -3.7065 H         1 <1>         0.0235 
     50 H28        19.8663   -0.3957   -3.0345 H         1 <1>         0.0235 
     51 H29        20.6336    0.9138   -2.0940 H         1 <1>         0.0235 
     52 H17        21.7151    5.1135   -1.1083 H         1 <1>         0.0507 
@<TRIPOS>BOND
     1    1    2 1    
     2    3    2 1    
     3    4    3 1    
     4    4    5 1    
     5    5    1 1    
     6    1    6 2    
     7    5    7 1    
     8    7    8 1    
     9    8    9 2    
    10    9   10 1    
    11   10   11 1    
    12    2   12 1    
    13    2   24 1    
    14   13   14 2    
    15   13   15 am   
    16   15   16 1    
    17   16   17 1    
    18   17   18 1    
    19   17   19 2    
    20   16   20 1    
    21   20   21 1    
    22   21   22 1    
    23   20   23 1    
    24    3   25 1    
    25    3   26 1    
    26    4   27 1    
    27   28    4 1    
    28    5   29 1    
    29    7   30 1    
    30    7   31 1    
    31    8   32 1    
    32    9   33 1    
    33   10   34 1    
    34   10   35 1    
    35   11   36 1    
    36   11   37 1    
    37   11   38 1    
    38   13   28 1    
    39   15   40 1    
    40   16   41 1    
    41   18   42 1    
    42   20   43 1    
    43   21   44 1    
    44   21   45 1    
    45   22   46 1    
    46   22   47 1    
    47   22   48 1    
    48   23   49 1    
    49   23   50 1    
    50   23   51 1    
    51   28   39 1    
    52   28   52 1    
@<TRIPOS>SUBSTRUCTURE
     1 ****       13 TEMP              0 ****  ****    0 ROOT 
@<TRIPOS>NORMAL
@<TRIPOS>FF_PBC
FORCE_FIELD_SETUP_FEATURE Force Field Setup information
v1.0  0 0.000000 0.000000 0.000000 0.000000 0.000000 0.000000 NONE 0 0 0 0 0 0 0 0 0 0 0 0 0
