#	Name:			PISM01050
#	Creating user name:	malab
#	Creation time:		Tue Jul 02 22:41:51 2019

#	Modifying user name:	malab
#	Modification time:	Tue Jul 02 22:45:14 2019

@<TRIPOS>MOLECULE
PISM01050
   47    50     1     1     0
SMALL
GAST_HUCK


@<TRIPOS>ATOM
      1 C1         -6.4666   14.9403    2.7064 C.3       1 <1>        -0.0891 
      2 C2         -5.9780   15.3258    4.1395 C.3       1 <1>        -0.0974 
      3 C3         -6.8669   16.4028    4.8150 C.3       1 <1>        -0.0144 
      4 C4         -8.3163   15.8758    4.9942 C.3       1 <1>         0.1350 
      5 C5         -8.7519   15.1382    3.7566 C.2       1 <1>         0.0455 
      6 C6         -7.9638   14.7128    2.7728 C.2       1 <1>        -0.0369 
      7 C7         -6.2089   16.0900    1.6880 C.3       1 <1>        -0.1161 
      8 C8         -5.6743   13.6803    2.2511 C.3       1 <1>        -0.1161 
      9 H1         -4.9359   15.6830    4.0985 H         1 <1>         0.0075 
     10 C10        -8.7087   13.9898    1.6819 C.3       1 <1>         0.1189 
     11 C11       -10.1447   13.8967    2.3069 C.3       1 <1>         0.0513 
     12 C12       -10.1999   14.8234    3.5549 C.3       1 <1>         0.0436 
     13 O13        -8.1959   12.6578    1.4609 O.3       1 <1>        -0.2683 
     14 C14        -8.9915   11.8360    2.1212 C.2       1 <1>         0.2378 
     15 O15        -8.7513   10.6466    2.2379 O.2       1 <1>        -0.3778 
     16 C16       -10.1896   12.4429    2.6712 C.2       1 <1>         0.0594 
     17 C17       -11.1586   11.8307    3.3584 C.2       1 <1>         0.0792 
     18 O18       -12.2200   12.5385    3.7698 O.3       1 <1>        -0.2722 
     19 C19       -13.1634   11.7610    4.5253 C.3       1 <1>         0.2383 
     20 C20       -14.2265   12.7005    5.0386 C.2       1 <1>        -0.0010 
     21 C21       -14.1977   12.7575    6.3687 C.2       1 <1>         0.0293 
     22 C22       -13.1176   11.8449    6.7254 C.2       1 <1>         0.2495 
     23 O23       -12.5213   11.2391    5.7064 O.3       1 <1>        -0.2305 
     24 O24       -12.7845   11.6429    7.8801 O.2       1 <1>        -0.3691 
     25 C25       -15.0621   13.5762    7.2883 C.3       1 <1>        -0.0323 
     26 H2         -6.0002   14.4328    4.7859 H         1 <1>         0.0075 
     27 H3         -6.8729   17.3176    4.2039 H         1 <1>         0.0329 
     28 H4         -6.4491   16.6730    5.7985 H         1 <1>         0.0329 
     29 H5         -8.9963   16.7261    5.1804 H         1 <1>         0.1019 
     30 O30        -8.4149   14.9241    6.0686 O.3       1 <1>        -0.3593 
     31 H7         -5.1496   16.3881    1.7049 H         1 <1>         0.0034 
     32 H8         -6.8246   16.9749    1.9026 H         1 <1>         0.0034 
     33 H9         -6.4516   15.7636    0.6655 H         1 <1>         0.0034 
     34 H10        -5.8815   13.4273    1.2009 H         1 <1>         0.0034 
     35 H11        -4.5917   13.8598    2.3397 H         1 <1>         0.0034 
     36 H12        -5.9351   12.8145    2.8794 H         1 <1>         0.0034 
     37 H13        -8.6738   14.5866    0.7572 H         1 <1>         0.0798 
     38 H14       -10.9434   14.1033    1.5755 H         1 <1>         0.0491 
     39 H15       -10.6308   14.3465    4.4487 H         1 <1>         0.0702 
     40 H16       -10.7428   15.7565    3.3373 H         1 <1>         0.0702 
     41 H17       -11.0342   10.7616    3.5515 H         1 <1>         0.1070 
     42 H18       -13.6164   10.9490    3.9309 H         1 <1>         0.1210 
     43 H19       -14.9143   13.2580    4.4040 H         1 <1>         0.0706 
     44 H20       -15.2856   14.5534    6.8345 H         1 <1>         0.0347 
     45 H21       -14.5449   13.7388    8.2459 H         1 <1>         0.0347 
     46 H22       -16.0047   13.0414    7.4768 H         1 <1>         0.0347 
     47 H6         -8.1572   15.2774    6.9145 H         1 <1>         0.2174 
@<TRIPOS>BOND
     1    2    1 1    
     2    2    3 1    
     3    3    4 1    
     4    4    5 1    
     5    5    6 2    
     6    1    6 1    
     7    1    7 1    
     8    1    8 1    
     9    2    9 1    
    10    6   10 1    
    11   10   11 1    
    12   11   12 1    
    13    5   12 1    
    14   10   13 1    
    15   13   14 1    
    16   14   15 2    
    17   14   16 1    
    18   11   16 1    
    19   16   17 2    
    20   17   18 1    
    21   18   19 1    
    22   19   20 1    
    23   20   21 2    
    24   21   22 1    
    25   22   23 1    
    26   19   23 1    
    27   22   24 2    
    28   21   25 1    
    29    2   26 1    
    30    3   27 1    
    31    3   28 1    
    32    4   29 1    
    33    4   30 1    
    34    7   31 1    
    35    7   32 1    
    36    7   33 1    
    37    8   34 1    
    38    8   35 1    
    39    8   36 1    
    40   10   37 1    
    41   11   38 1    
    42   12   39 1    
    43   12   40 1    
    44   17   41 1    
    45   19   42 1    
    46   20   43 1    
    47   25   44 1    
    48   25   45 1    
    49   25   46 1    
    50   30   47 1    
@<TRIPOS>SUBSTRUCTURE
     1 ****        2 TEMP              0 ****  ****    0 ROOT 
@<TRIPOS>NORMAL
@<TRIPOS>FF_PBC
FORCE_FIELD_SETUP_FEATURE Force Field Setup information
v1.0  0 0.000000 0.000000 0.000000 0.000000 0.000000 0.000000 NONE 0 0 0 0 1 0 0 0 0 0 0 0 0
