#	Name:			PISM00858
#	Creating user name:	baoopengkun
#	Creation time:		Thu Dec 13 15:12:19 2018

#	Modifying user name:	baoopengkun
#	Modification time:	Thu Dec 13 20:16:04 2018

@<TRIPOS>MOLECULE
PISM00858
   25    26     1     1     0
SMALL
GAST_HUCK


@<TRIPOS>ATOM
      1 C1          0.1546   -0.4714    1.9915 C.1       1 <1>         0.0937 
      2 C2         -2.2716   -0.5302    2.4163 C.ar      1 <1>        -0.0328 
      3 C3         -3.5870   -0.4536    1.9485 C.ar      1 <1>        -0.0522 
      4 C4         -3.8360   -0.2577    0.5867 C.ar      1 <1>         0.0135 
      5 C5         -2.7679   -0.1430   -0.3077 C.ar      1 <1>        -0.0108 
      6 C6         -1.4530   -0.2249    0.1572 C.ar      1 <1>         0.1382 
      7 C7         -1.2050   -0.4101    1.5204 C.ar      1 <1>         0.1270 
      8 Br8        -5.5787   -0.1503   -0.0321 Br        1 <1>        -0.0450 
      9 O9         -0.3935   -0.1227   -0.7436 O.3       1 <1>        -0.2597 
     10 C10         0.1507    1.2010   -0.8228 C.3       1 <1>         0.2387 
     11 O11        -0.8885    2.1177   -1.2211 O.3       1 <1>        -0.2308 
     12 C12        -0.5272    2.5536   -2.4212 C.2       1 <1>         0.2495 
     13 C13         0.7454    2.0419   -2.9187 C.2       1 <1>         0.0292 
     14 C14         1.1556    1.2287   -1.9473 C.2       1 <1>        -0.0014 
     15 C15         1.4275    2.3521   -4.2231 C.3       1 <1>        -0.0323 
     16 O16        -1.2155    3.3340   -3.0558 O.2       1 <1>        -0.3691 
     17 H1         -2.0789   -0.6820    3.4741 H         1 <1>         0.0693 
     18 H2         -4.4161   -0.5457    2.6432 H         1 <1>         0.0574 
     19 H3         -2.9537    0.0110   -1.3653 H         1 <1>         0.0594 
     20 H4          0.6145    1.5265    0.1235 H         1 <1>         0.1205 
     21 H5          2.0818    0.6555   -1.9596 H         1 <1>         0.0706 
     22 H6          1.7942    1.4242   -4.6871 H         1 <1>         0.0347 
     23 H7          2.2780    3.0260   -4.0420 H         1 <1>         0.0347 
     24 H8          0.7238    2.8410   -4.9135 H         1 <1>         0.0347 
     25 N25         1.2497   -0.5119    2.3638 N.1       1 <1>        -0.3371 
@<TRIPOS>BOND
     1    7    1 1    
     2    2    3 ar   
     3    3    4 ar   
     4    4    5 ar   
     5    5    6 ar   
     6    6    7 ar   
     7    2    7 ar   
     8    4    8 1    
     9    6    9 1    
    10    9   10 1    
    11   10   11 1    
    12   11   12 1    
    13   12   13 1    
    14   13   14 2    
    15   10   14 1    
    16   13   15 1    
    17   12   16 2    
    18    2   17 1    
    19    3   18 1    
    20    5   19 1    
    21   10   20 1    
    22   14   21 1    
    23   15   22 1    
    24   15   23 1    
    25   15   24 1    
    26    1   25 3    
@<TRIPOS>SUBSTRUCTURE
     1 ****        2 TEMP              0 ****  ****    0 ROOT 
@<TRIPOS>NORMAL
@<TRIPOS>FF_PBC
FORCE_FIELD_SETUP_FEATURE Force Field Setup information
v1.0  0 0.000000 0.000000 0.000000 0.000000 0.000000 0.000000 NONE 0 0 0 0 1 0 0 0 0 0 0 0 0
