#	Name:			PISM00926
#	Creating user name:	baoopengkun
#	Creation time:		Wed Feb 27 16:15:06 2019

#	Modifying user name:	baoopengkun
#	Modification time:	Wed Feb 27 16:17:57 2019

@<TRIPOS>MOLECULE
PISM00926
   44    44     1     1     0
SMALL
GAST_HUCK


@<TRIPOS>ATOM
      1 C1        -21.0667    4.0771   17.5401 C.3       1 <1>        -0.0609 
      2 C2        -19.7334    3.3697   17.9595 C.3       1 <1>        -0.0462 
      3 C3        -18.8923    4.4424   18.7233 C.3       1 <1>        -0.0609 
      4 C4        -20.1371    2.2532   18.9656 C.3       1 <1>        -0.0609 
      5 C5        -19.0345    2.8717   16.6292 C.3       1 <1>        -0.0733 
      6 C6        -17.9095    1.7681   16.5164 C.3       1 <1>        -0.0537 
      7 C7        -16.7190    2.1259   17.4536 C.3       1 <1>        -0.0901 
      8 C8        -18.4804    0.3584   16.8808 C.3       1 <1>        -0.0901 
      9 C9        -17.3647    1.6376   15.0515 C.ar      1 <1>        -0.0623 
     10 C10       -17.8115    2.4041   13.9606 C.ar      1 <1>        -0.0461 
     11 C11       -17.2820    2.2463   12.6741 C.ar      1 <1>         0.0013 
     12 C12       -16.3483    1.2449   12.4069 C.ar      1 <1>         0.1291 
     13 C13       -15.8680    0.4825   13.4751 C.ar      1 <1>         0.0013 
     14 C14       -16.3662    0.6913   14.7631 C.ar      1 <1>        -0.0461 
     15 O15       -15.9246    1.0389   11.0913 O.3       1 <1>        -0.2909 
     16 C16       -15.6432   -0.3020   10.6470 C.3       1 <1>         0.1027 
     17 C17       -15.4514   -0.3097    9.1131 C.3       1 <1>         0.0735 
     18 O18       -15.1982   -1.6626    8.6929 O.3       1 <1>        -0.3922 
     19 H1        -20.8738    4.8643   16.7924 H         1 <1>         0.0235 
     20 H2        -21.5717    4.5468   18.4004 H         1 <1>         0.0235 
     21 H3        -21.7722    3.3518   17.1011 H         1 <1>         0.0235 
     22 H4        -17.9462    4.0484   19.1051 H         1 <1>         0.0235 
     23 H5        -19.4489    4.8233   19.5923 H         1 <1>         0.0235 
     24 H6        -18.6652    5.3009   18.0759 H         1 <1>         0.0235 
     25 H7        -20.6699    1.4386   18.4539 H         1 <1>         0.0235 
     26 H8        -20.8130    2.6461   19.7409 H         1 <1>         0.0235 
     27 H9        -19.2587    1.8573   19.4938 H         1 <1>         0.0235 
     28 H10       -18.6116    3.7951   16.2047 H         1 <1>         0.0159 
     29 H11       -19.8345    2.5219   15.9577 H         1 <1>         0.0159 
     30 H12       -17.0318    2.0559   18.5024 H         1 <1>         0.0117 
     31 H13       -16.3664    3.1473   17.2406 H         1 <1>         0.0117 
     32 H14       -15.8656    1.4442   17.3463 H         1 <1>         0.0117 
     33 H15       -18.7292    0.2667   17.9414 H         1 <1>         0.0117 
     34 H16       -17.7749   -0.4611   16.6986 H         1 <1>         0.0117 
     35 H17       -19.3840    0.1475   16.2867 H         1 <1>         0.0117 
     36 H18       -18.5874    3.1510   14.0572 H         1 <1>         0.0823 
     37 H19       -17.5960    2.8982   11.8662 H         1 <1>         0.0651 
     38 H20       -15.1020   -0.2724   13.3268 H         1 <1>         0.0651 
     39 H21       -15.9353    0.0727   15.5385 H         1 <1>         0.0823 
     40 H22       -16.4777   -0.9760   10.9043 H         1 <1>         0.0656 
     41 H23       -14.7151   -0.6848   11.0978 H         1 <1>         0.0656 
     42 H24       -14.6046    0.3485    8.8557 H         1 <1>         0.0585 
     43 H25       -16.3647    0.0841    8.6362 H         1 <1>         0.0585 
     44 H26       -15.0810   -1.7441    7.7520 H         1 <1>         0.2095 
@<TRIPOS>BOND
     1    2    1 1    
     2    2    3 1    
     3    2    4 1    
     4    2    5 1    
     5    5    6 1    
     6    6    7 1    
     7    6    8 1    
     8    6    9 1    
     9    9   10 ar   
    10   10   11 ar   
    11   11   12 ar   
    12   12   13 ar   
    13   13   14 ar   
    14    9   14 ar   
    15   12   15 1    
    16   15   16 1    
    17   16   17 1    
    18   17   18 1    
    19    1   19 1    
    20    1   20 1    
    21    1   21 1    
    22    3   22 1    
    23    3   23 1    
    24    3   24 1    
    25    4   25 1    
    26    4   26 1    
    27    4   27 1    
    28    5   28 1    
    29    5   29 1    
    30    7   30 1    
    31    7   31 1    
    32    7   32 1    
    33    8   33 1    
    34    8   34 1    
    35    8   35 1    
    36   10   36 1    
    37   11   37 1    
    38   13   38 1    
    39   14   39 1    
    40   16   40 1    
    41   16   41 1    
    42   17   42 1    
    43   17   43 1    
    44   18   44 1    
@<TRIPOS>SUBSTRUCTURE
     1 ****        2 TEMP              0 ****  ****    0 ROOT 
@<TRIPOS>NORMAL
@<TRIPOS>FF_PBC
FORCE_FIELD_SETUP_FEATURE Force Field Setup information
v1.0  0 0.000000 0.000000 0.000000 0.000000 0.000000 0.000000 NONE 0 0 0 0 1 0 0 0 0 0 0 0 0
