#	Name:			PISM00569
#	Creating user name:	baoopengkun
#	Creation time:		Wed Dec 19 10:55:03 2018

#	Modifying user name:	baoopengkun
#	Modification time:	Wed Dec 19 11:05:58 2018

@<TRIPOS>MOLECULE
PISM00569
   16    16     1     1     0
SMALL
USER_CHARGES


@<TRIPOS>ATOM
      1 O1         18.9341   27.8662  -38.6512 O.3       1 <1>         0.0000 
      2 C2         21.4309   28.3864  -41.9902 C.ar      1 <1>         0.0000 
      3 C3         20.5203   27.3276  -41.9477 C.ar      1 <1>         0.0000 
      4 C4         19.6869   27.1496  -40.8367 C.ar      1 <1>         0.0000 
      5 C5         19.7687   28.0432  -39.7603 C.ar      1 <1>         0.0000 
      6 C6         20.6844   29.1032  -39.8062 C.ar      1 <1>         0.0000 
      7 C7         21.5136   29.2760  -40.9172 C.ar      1 <1>         0.0000 
      8 H1         19.0425   28.5153  -37.9652 H         1 <1>         0.0000 
      9 C9         18.7074   25.9939  -40.8114 C.2       1 <1>         0.0000 
     10 O10        18.6535   25.2321  -41.7659 O.2       1 <1>         0.0000 
     11 O11        17.9113   25.8136  -39.7512 O.3       1 <1>         0.0000 
     12 H2         22.0734   28.5184  -42.8549 H         1 <1>         0.0000 
     13 H3         20.4682   26.6442  -42.7892 H         1 <1>         0.0000 
     14 H4         20.7607   29.8025  -38.9802 H         1 <1>         0.0000 
     15 H5         17.3321   25.0624  -39.8283 H         1 <1>         0.0000 
     16 Cl16       22.6546   30.6049  -40.9648 Cl        1 <1>         0.0000 
@<TRIPOS>BOND
     1    5    1 1    
     2    2    3 ar   
     3    3    4 ar   
     4    4    5 ar   
     5    5    6 ar   
     6    6    7 ar   
     7    2    7 ar   
     8    1    8 1    
     9    4    9 1    
    10    9   10 2    
    11    9   11 1    
    12    2   12 1    
    13    3   13 1    
    14    6   14 1    
    15   11   15 1    
    16    7   16 1    
@<TRIPOS>SUBSTRUCTURE
     1 ****        2 TEMP              0 ****  ****    0 ROOT 
@<TRIPOS>NORMAL
@<TRIPOS>FF_PBC
FORCE_FIELD_SETUP_FEATURE Force Field Setup information
v1.0  0 0.000000 0.000000 0.000000 0.000000 0.000000 0.000000 NONE 0 0 0 0 0 0 0 0 0 0 0 0 0
