#	Name:			PISM00991
#	Creating user name:	baoopengkun
#	Creation time:		Fri Jan 11 22:05:04 2019

#	Modifying user name:	baoopengkun
#	Modification time:	Fri Jan 11 22:30:59 2019

@<TRIPOS>MOLECULE
PISM00991
   35    37     1     1     0
SMALL
GAST_HUCK


@<TRIPOS>ATOM
      1 H1         12.2209    1.6535   -0.8780 H         1 <1>         0.0816 
      2 H2         14.6740    2.5692   -1.3900 H         1 <1>         0.0816 
      3 C3         12.5887    2.0900   -1.8052 C.2       1 <1>         0.0412 
      4 C4         13.8170    2.5485   -2.0615 C.2       1 <1>         0.0412 
      5 H3         11.1826    1.2996   -5.5476 H         1 <1>         0.0539 
      6 H4         10.4702    1.9079   -7.8319 H         1 <1>         0.0607 
      7 C7         11.8155    2.2930   -3.0375 C.2       1 <1>         0.2576 
      8 O8         10.6402    1.9917   -3.1572 O.2       1 <1>        -0.3492 
      9 N9         12.5943    2.8371   -3.9244 N.pl3     1 <1>        -0.1377 
     10 C10        13.7891    3.0273   -3.4499 C.2       1 <1>         0.2576 
     11 O11        14.7527    3.5083   -4.0212 O.2       1 <1>        -0.3492 
     12 C12        12.2097    3.1645   -5.1824 C.ar      1 <1>         0.0861 
     13 C13        11.4587    2.2680   -5.9517 C.ar      1 <1>        -0.0343 
     14 C14        11.0638    2.6048   -7.2498 C.ar      1 <1>        -0.0441 
     15 C15        11.4328    3.8355   -7.7990 C.ar      1 <1>         0.1026 
     16 C16        12.1707    4.7394   -7.0304 C.ar      1 <1>        -0.0441 
     17 C17        12.5579    4.4050   -5.7296 C.ar      1 <1>        -0.0343 
     18 S18        10.9484    4.2733   -9.4530 S.o2      1 <1>         0.0844 
     19 O19        10.5197    3.0790  -10.1528 O.2       1 <1>        -0.1461 
     20 O20        10.0598    5.4147   -9.3631 O.2       1 <1>        -0.1461 
     21 N21        12.3760    4.7682  -10.1193 N.am      1 <1>        -0.1882 
     22 C22        12.4404    5.5961  -11.2747 C.ar      1 <1>         0.0624 
     23 C23        11.3310    5.7455  -12.1155 C.ar      1 <1>        -0.0456 
     24 C24        11.3989    6.5818  -13.2338 C.ar      1 <1>        -0.0779 
     25 C25        12.5816    7.2653  -13.5286 C.ar      1 <1>        -0.0792 
     26 C26        13.6997    7.1026  -12.7062 C.ar      1 <1>        -0.0779 
     27 C27        13.6266    6.2716  -11.5843 C.ar      1 <1>        -0.0456 
     28 H5         12.4400    5.7047   -7.4463 H         1 <1>         0.0607 
     29 H6         13.1259    5.1207   -5.1447 H         1 <1>         0.0539 
     30 H7         13.2262    4.4443   -9.7050 H         1 <1>         0.2161 
     31 H8         10.4087    5.2121  -11.9170 H         1 <1>         0.0481 
     32 H9         10.5312    6.6991  -13.8760 H         1 <1>         0.0572 
     33 H10        12.6314    7.9195  -14.3936 H         1 <1>         0.0471 
     34 H11        14.6242    7.6225  -12.9386 H         1 <1>         0.0572 
     35 H12        14.4998    6.1561  -10.9503 H         1 <1>         0.0481 
@<TRIPOS>BOND
     1    3    1 1    
     2    4    2 1    
     3    4    3 2    
     4   13    5 1    
     5   14    6 1    
     6   16   28 1    
     7    3    7 1    
     8    7    8 2    
     9    9    7 1    
    10   10    9 1    
    11   10   11 2    
    12    4   10 1    
    13    9   12 1    
    14   12   13 ar   
    15   13   14 ar   
    16   14   15 ar   
    17   16   15 ar   
    18   17   16 ar   
    19   12   17 ar   
    20   15   18 1    
    21   18   19 2    
    22   18   20 2    
    23   18   21 1    
    24   21   22 1    
    25   22   23 ar   
    26   23   24 ar   
    27   24   25 ar   
    28   26   25 ar   
    29   27   26 ar   
    30   22   27 ar   
    31   17   29 1    
    32   21   30 1    
    33   23   31 1    
    34   24   32 1    
    35   25   33 1    
    36   26   34 1    
    37   27   35 1    
@<TRIPOS>SUBSTRUCTURE
     1 ****        4 TEMP              0 ****  ****    0 ROOT 
@<TRIPOS>NORMAL
@<TRIPOS>FF_PBC
FORCE_FIELD_SETUP_FEATURE Force Field Setup information
v1.0  0 0.000000 0.000000 0.000000 0.000000 0.000000 0.000000 NONE 0 0 0 0 1 0 0 0 0 0 0 0 0
