#	Name:			PISM00570
#	Creating user name:	baoopengkun
#	Creation time:		Wed Dec 19 10:55:03 2018

#	Modifying user name:	baoopengkun
#	Modification time:	Wed Dec 19 11:08:54 2018

@<TRIPOS>MOLECULE
PISM00570
   16    16     1     1     0
SMALL
USER_CHARGES


@<TRIPOS>ATOM
      1 H1         19.1399   27.9153  -38.9101 H         1 <1>         0.0000 
      2 C2         21.4324   28.3907  -41.9944 C.ar      1 <1>         0.0000 
      3 C3         20.5232   27.3295  -41.9617 C.ar      1 <1>         0.0000 
      4 C4         19.6898   27.1468  -40.8524 C.ar      1 <1>         0.0000 
      5 C5         19.7781   28.0400  -39.7788 C.ar      1 <1>         0.0000 
      6 C6         20.6872   29.1019  -39.8111 C.ar      1 <1>         0.0000 
      7 C7         21.5221   29.2813  -40.9213 C.ar      1 <1>         0.0000 
      8 H2         22.4574   30.8850  -40.2064 H         1 <1>         0.0000 
      9 C9         18.7039   25.9981  -40.8116 C.2       1 <1>         0.0000 
     10 O10        18.6372   25.2265  -41.7572 O.2       1 <1>         0.0000 
     11 O11        17.9179   25.8426  -39.7398 O.3       1 <1>         0.0000 
     12 H12        22.0749   28.5265  -42.8585 H         1 <1>         0.0000 
     13 H3         20.4708   26.6490  -42.8054 H         1 <1>         0.0000 
     14 H14        20.7371   29.7831  -38.9675 H         1 <1>         0.0000 
     15 H5         17.3308   25.0961  -39.8007 H         1 <1>         0.0000 
     16 O16        22.4437   30.3321  -40.9796 O.3       1 <1>         0.0000 
@<TRIPOS>BOND
     1    5    1 1    
     2    2    3 ar   
     3    3    4 ar   
     4    4    5 ar   
     5    5    6 ar   
     6    6    7 ar   
     7    2    7 ar   
     8   16    8 1    
     9    4    9 1    
    10    9   10 2    
    11    9   11 1    
    12    2   12 1    
    13    3   13 1    
    14    6   14 1    
    15   11   15 1    
    16    7   16 1    
@<TRIPOS>SUBSTRUCTURE
     1 ****        2 TEMP              0 ****  ****    0 ROOT 
@<TRIPOS>NORMAL
@<TRIPOS>FF_PBC
FORCE_FIELD_SETUP_FEATURE Force Field Setup information
v1.0  0 0.000000 0.000000 0.000000 0.000000 0.000000 0.000000 NONE 0 0 0 0 0 0 0 0 0 0 0 0 0
