#	Name:			PISM00899
#	Creating user name:	baoopengkun
#	Creation time:		Fri Dec 14 10:03:55 2018

#	Modifying user name:	baoopengkun
#	Modification time:	Fri Dec 14 10:17:51 2018

@<TRIPOS>MOLECULE
PISM00899
   37    38     1     1     0
SMALL
GAST_HUCK


@<TRIPOS>ATOM
      1 C1         13.6591    8.8417   -0.0521 C.ar      1 <1>        -0.0603 
      2 C2         14.7091    8.4969    0.8039 C.ar      1 <1>        -0.0686 
      3 C3         14.4368    7.9247    2.0496 C.ar      1 <1>        -0.0687 
      4 C4         13.1130    7.7004    2.4379 C.ar      1 <1>        -0.0686 
      5 C5         12.0643    8.0446    1.5800 C.ar      1 <1>        -0.0603 
      6 C6         12.3322    8.6115    0.3288 C.ar      1 <1>        -0.0411 
      7 N7          9.6292   10.7709   -1.2498 N.am      1 <1>        -0.2498 
      8 C8          9.8998   11.1621   -2.5207 C.2       1 <1>         0.3271 
      9 O9          9.0196   11.4420   -3.3182 O.2       1 <1>        -0.3772 
     10 O10        11.2004   11.2236   -2.8379 O.3       1 <1>        -0.2137 
     11 C11        11.4577   11.5535   -4.2129 C.3       1 <1>         0.2419 
     12 C12        10.8584   12.8707   -4.6472 C.2       1 <1>        -0.0022 
     13 C13        10.0751   12.6863   -5.7087 C.2       1 <1>         0.0291 
     14 C14        10.1655   11.2513   -5.9645 C.2       1 <1>         0.2494 
     15 O15        10.9222   10.5650   -5.1156 O.3       1 <1>        -0.2315 
     16 C16         9.2878   13.7142   -6.4739 C.3       1 <1>        -0.0323 
     17 O17         9.5911   10.7131   -6.8956 O.2       1 <1>        -0.3691 
     18 C18        10.7280   10.4343   -0.3392 C.3       1 <1>         0.0450 
     19 C19         8.2228   10.6551   -0.8616 C.3       1 <1>         0.0247 
     20 C20        11.1816    8.9808   -0.6171 C.3       1 <1>         0.0013 
     21 H1         13.8803    9.2912   -1.0151 H         1 <1>         0.0557 
     22 H2         15.7368    8.6737    0.5014 H         1 <1>         0.0599 
     23 H3         15.2518    7.6553    2.7144 H         1 <1>         0.0559 
     24 H4         12.8996    7.2587    3.4065 H         1 <1>         0.0599 
     25 H5         11.0395    7.8702    1.8921 H         1 <1>         0.0557 
     26 H6         12.5494   11.5944   -4.3538 H         1 <1>         0.1194 
     27 H7         11.0422   13.8266   -4.1590 H         1 <1>         0.0704 
     28 H8          9.8584   14.6516   -6.5535 H         1 <1>         0.0347 
     29 H9          8.3410   13.9103   -5.9494 H         1 <1>         0.0347 
     30 H10         9.0669   13.3440   -7.4863 H         1 <1>         0.0347 
     31 H11        10.4018   10.5131    0.7105 H         1 <1>         0.0544 
     32 H12        11.5789   11.1261   -0.4535 H         1 <1>         0.0544 
     33 H13         7.7536   11.6510   -0.8657 H         1 <1>         0.0485 
     34 H14         8.1039   10.2207    0.1424 H         1 <1>         0.0485 
     35 H15         7.6842   10.0080   -1.5719 H         1 <1>         0.0485 
     36 H16        11.5084    8.8796   -1.6639 H         1 <1>         0.0446 
     37 H17        10.3309    8.2969   -0.4694 H         1 <1>         0.0446 
@<TRIPOS>BOND
     1    1    2 ar   
     2    2    3 ar   
     3    4    3 ar   
     4    5    4 ar   
     5    6    5 ar   
     6    6    1 ar   
     7    7    8 am   
     8   18    7 1    
     9    8    9 2    
    10    8   10 1    
    11   10   11 1    
    12   11   12 1    
    13   12   13 2    
    14   14   13 1    
    15   15   14 1    
    16   11   15 1    
    17   13   16 1    
    18   14   17 2    
    19   20   18 1    
    20    7   19 1    
    21    6   20 1    
    22    1   21 1    
    23    2   22 1    
    24    3   23 1    
    25    4   24 1    
    26    5   25 1    
    27   11   26 1    
    28   12   27 1    
    29   16   28 1    
    30   16   29 1    
    31   16   30 1    
    32   18   31 1    
    33   18   32 1    
    34   19   33 1    
    35   19   34 1    
    36   19   35 1    
    37   20   36 1    
    38   20   37 1    
@<TRIPOS>SUBSTRUCTURE
     1 ****        2 TEMP              0 ****  ****    0 ROOT 
@<TRIPOS>NORMAL
@<TRIPOS>FF_PBC
FORCE_FIELD_SETUP_FEATURE Force Field Setup information
v1.0  0 0.000000 0.000000 0.000000 0.000000 0.000000 0.000000 NONE 0 0 0 0 1 0 0 0 0 0 0 0 0
