#	Name:			PISM00252
#	Creating user name:	14062
#	Creation time:		Mon Apr 01 20:10:24 2019

#	Modifying user name:	14062
#	Modification time:	Mon Apr 01 20:35:27 2019

@<TRIPOS>MOLECULE
PISM00252
   48    50     1     2     0
SMALL
GAST_HUCK


@<TRIPOS>ATOM
      1 N1          1.6126    0.8024    6.1734 N.pl3     1 <1>        -0.2884 
      2 C2          0.4962    0.0503    6.2125 C.ar      1 <1>         0.0606 
      3 C3          0.2461   -0.4735    4.9600 C.ar      1 <1>        -0.0191 
      4 C4         -0.8439   -1.3031    4.7030 C.ar      1 <1>        -0.0746 
      5 C5         -1.6900   -1.5803    5.7838 C.ar      1 <1>        -0.0792 
      6 C6         -1.4481   -1.0403    7.0572 C.ar      1 <1>        -0.0767 
      7 C7          1.3792    0.0912    4.1420 C.2       1 <1>        -0.0231 
      8 C8          2.1338    0.8296    4.9727 C.2       1 <1>         0.0195 
      9 C9         -0.3412   -0.2135    7.2955 C.ar      1 <1>        -0.0442 
     10 C10         1.5943   -0.1189    2.6654 C.3       1 <1>         0.0762 
     11 C11         1.5711   -1.5932    2.3546 C.2       1 <1>         0.2395 
     12 O12         0.8561   -2.0709    1.4885 O.2       1 <1>        -0.3687 
     13 O13         2.3919   -2.3470    3.0842 O.3       1 <1>        -0.2917 
     14 C14         0.5372    0.6858    1.8548 C.3       1 <1>        -0.0275 
     15 C15        -0.7915    4.3908    2.4167 C.3       1 <1>        -0.0296 
     16 C16        -0.5041    3.1004    1.5734 C.3       1 <1>        -0.0371 
     17 H1          2.0006    1.3013    6.9880 H         1 <1>         0.2219 
     18 H2         -1.0242   -1.7133    3.7150 H         1 <1>         0.0540 
     19 H3         -2.5491   -2.2279    5.6331 H         1 <1>         0.0510 
     20 C20        -0.5409    5.7192    1.6579 C.3       1 <1>         0.0341 
     21 H4         -2.1295   -1.2639    7.8723 H         1 <1>         0.0530 
     22 C22         0.4326    2.1477    2.3796 C.3       1 <1>        -0.0466 
     23 H5          3.0330    1.3714    4.6789 H         1 <1>         0.0804 
     24 H6         -0.1422    0.2068    8.2749 H         1 <1>         0.0541 
     25 H7          2.5993    0.2435    2.3930 H         1 <1>         0.0635 
     26 H8          2.3186   -3.2628    2.8414 H         1 <1>         0.2540 
     27 H9         -0.4492    0.2041    1.9566 H         1 <1>         0.0307 
     28 H10         0.8267    0.6504    0.7952 H         1 <1>         0.0307 
     29 H11        -1.8251    4.3768    2.8025 H         1 <1>         0.0287 
     30 H12        -0.1194    4.4398    3.2890 H         1 <1>         0.0287 
     31 H13        -1.4515    2.5533    1.4202 H         1 <1>         0.0302 
     32 H14        -1.2895    5.8688    0.8662 H         1 <1>         0.0522 
     33 H15        -0.6660    6.5491    2.3754 H         1 <1>         0.0522 
     34 H16         1.4382    2.5869    2.4547 H         1 <1>         0.0271 
     35 H17         0.0150    2.0854    3.3987 H         1 <1>         0.0271 
     36 H18         2.0771    4.0010    0.6714 H         1 <1>         0.0522 
     37 H19         1.4292    4.8290   -0.7755 H         1 <1>         0.0522 
     38 H20         0.3681    2.5876   -0.4014 H         1 <1>         0.0287 
     39 H21        -0.7840    3.9193   -0.4262 H         1 <1>         0.0287 
     40 N40         0.8003    5.6463    1.0695 N.am      1 <1>        -0.2734 
     41 H22         3.6380    5.7752    1.1906 H         1 <1>         0.0467 
     42 C42         1.1921    4.4998    0.2487 C.3       1 <1>         0.0341 
     43 C43         0.0358    3.4722    0.1604 C.3       1 <1>        -0.0296 
     44 C44         1.6810    6.6621    1.2923 C.2       1 <1>         0.1753 
     45 C45         3.0894    6.6175    0.7487 C.3       1 <1>         0.0258 
     46 O46         1.3836    7.6500    1.9441 O.2       1 <1>        -0.3972 
     47 H23         3.6314    7.5406    1.0042 H         1 <1>         0.0467 
     48 H24         3.0860    6.5193   -0.3453 H         1 <1>         0.0467 
@<TRIPOS>BOND
     1    8    1 1    
     2    2    1 1    
     3    3    2 ar   
     4    7    3 1    
     5    3    4 ar   
     6    4    5 ar   
     7    5    6 ar   
     8    7    8 2    
     9    9    6 ar   
    10    2    9 ar   
    11   10    7 1    
    12   10   11 1    
    13   11   12 2    
    14   11   13 1    
    15   14   10 1    
    16   15   20 1    
    17   16   15 1    
    18   16   43 1    
    19   22   16 1    
    20    1   17 1    
    21    4   18 1    
    22    5   19 1    
    23   22   14 1    
    24    6   21 1    
    25    8   23 1    
    26    9   24 1    
    27   10   25 1    
    28   13   26 1    
    29   14   27 1    
    30   14   28 1    
    31   15   29 1    
    32   15   30 1    
    33   16   31 1    
    34   20   32 1    
    35   20   33 1    
    36   22   34 1    
    37   22   35 1    
    38   42   36 1    
    39   42   37 1    
    40   43   38 1    
    41   20   40 1    
    42   43   39 1    
    43   42   40 1    
    44   43   42 1    
    45   45   41 1    
    46   40   44 am   
    47   44   45 1    
    48   44   46 2    
    49   45   47 1    
    50   45   48 1    
@<TRIPOS>SUBSTRUCTURE
     1 ****        7 TEMP              0 ****  ****    0 ROOT 
@<TRIPOS>NORMAL
@<TRIPOS>FF_PBC
FORCE_FIELD_SETUP_FEATURE Force Field Setup information
v1.0  0 0.000000 0.000000 0.000000 0.000000 0.000000 0.000000 NONE 0 0 0 0 1 0 0 0 0 0 0 0 0
@<TRIPOS>RENDERING_ATTRS
ANTIALIASED_LINES 
1,2,3,4,5,6,7,8,9,10,11,12,13,15,16,20
