#	Name:			PISM00245
#	Creating user name:	14062
#	Creation time:		Tue Jun 18 23:51:44 2019

#	Modifying user name:	14062
#	Modification time:	Tue Jun 18 23:54:38 2019

@<TRIPOS>MOLECULE
PISM00245
   22    23     1     2     0
SMALL
GAST_HUCK


@<TRIPOS>ATOM
      1 C1         -1.8063   13.7819   -2.2055 C.ar      1 <1>        -0.0390 
      2 C2         -2.8528   13.6327   -1.2830 C.ar      1 <1>         0.1164 
      3 C3         -2.6496   12.9907   -0.0533 C.ar      1 <1>        -0.0405 
      4 C4         -1.3958   12.4631    0.2842 C.ar      1 <1>        -0.0474 
      5 C5         -0.3642   12.5969   -0.6492 C.ar      1 <1>         0.0417 
      6 C6         -0.5693   13.2523   -1.8482 C.ar      1 <1>        -0.0208 
      7 C7          0.8007   13.1638   -2.4743 C.2       1 <1>        -0.0268 
      8 C8          1.5650   12.4678   -1.6145 C.2       1 <1>         0.0029 
      9 N9          0.9437   12.1045   -0.4784 N.3       1 <1>        -0.2368 
     10 C10         1.1950   13.7468   -3.8094 C.3       1 <1>         0.0669 
     11 C11         2.6668   13.8172   -4.1343 C.2       1 <1>         0.2371 
     12 O12         3.4961   14.1723   -3.3121 O.2       1 <1>        -0.3689 
     13 O13         2.9850   13.5063   -5.3948 O.3       1 <1>        -0.2918 
     14 F14        -4.0585   14.1097   -1.5818 F         1 <1>        -0.1931 
     15 H1         -1.9596   14.2880   -3.1516 H         1 <1>         0.0528 
     16 H2         -3.4765   12.9040    0.6465 H         1 <1>         0.0538 
     17 H3         -1.2299   11.9694    1.2352 H         1 <1>         0.0542 
     18 H4          2.6050   12.2184   -1.8242 H         1 <1>         0.0758 
     19 H5          1.4065   12.5997    0.3629 H         1 <1>         0.1879 
     20 H6          0.8410   14.7851   -3.8469 H         1 <1>         0.0608 
     21 H7          0.6871   13.1723   -4.5987 H         1 <1>         0.0608 
     22 H8          3.9081   13.6275   -5.5872 H         1 <1>         0.2540 
@<TRIPOS>BOND
     1    2    1 ar   
     2    2    3 ar   
     3    3    4 ar   
     4    4    5 ar   
     5    5    6 ar   
     6    1    6 ar   
     7    6    7 1    
     8    7    8 2    
     9    8    9 1    
    10    5    9 1    
    11    7   10 1    
    12   10   11 1    
    13   11   12 2    
    14   11   13 1    
    15    2   14 1    
    16    1   15 1    
    17    3   16 1    
    18    4   17 1    
    19    8   18 1    
    20    9   19 1    
    21   10   20 1    
    22   10   21 1    
    23   13   22 1    
@<TRIPOS>SUBSTRUCTURE
     1 ****        2 TEMP              0 ****  ****    0 ROOT 
@<TRIPOS>NORMAL
@<TRIPOS>FF_PBC
FORCE_FIELD_SETUP_FEATURE Force Field Setup information
v1.0  0 0.000000 0.000000 0.000000 0.000000 0.000000 0.000000 NONE 0 0 0 0 1 0 0 0 0 0 0 0 0
@<TRIPOS>RENDERING_ATTRS
ANTIALIASED_LINES 
*
