#	Name:			PISM00228
#	Creating user name:	14062
#	Creation time:		Fri Apr 05 23:56:12 2019

#	Modifying user name:	14062
#	Modification time:	Fri Apr 05 23:57:26 2019

@<TRIPOS>MOLECULE
PISM00228
   27    27     1     2     0
SMALL
GAST_HUCK


@<TRIPOS>ATOM
      1 C1         -8.6556    2.3309   -3.8053 C.ar      1 <1>        -0.0689 
      2 C2         -7.5846    2.1493   -2.9253 C.ar      1 <1>        -0.0544 
      3 C3         -7.1989    0.8671   -2.5099 C.ar      1 <1>         0.0498 
      4 C4         -7.8875   -0.2490   -3.0151 C.ar      1 <1>         0.0560 
      5 C5         -8.9744   -0.0606   -3.8797 C.ar      1 <1>        -0.0380 
      6 C6         -9.3575    1.2222   -4.2784 C.ar      1 <1>        -0.0688 
      7 N7         -7.5147   -1.5107   -2.6819 N.pl3     1 <1>        -0.3322 
      8 O8         -5.8148   -0.4359   -1.1076 O.2       1 <1>        -0.3863 
      9 C9         -6.0533    0.6851   -1.5317 C.2       1 <1>         0.1285 
     10 C10        -5.1817    1.8290   -1.0807 C.3       1 <1>         0.0538 
     11 C11        -4.0699    1.3990   -0.0818 C.3       1 <1>         0.1220 
     12 C12        -3.1055    2.5526    0.1419 C.2       1 <1>         0.2507 
     13 O13        -1.9649    2.3470    0.8068 O.3       1 <1>        -0.2914 
     14 O14        -3.3517    3.6714   -0.2761 O.2       1 <1>        -0.3687 
     15 N15        -4.6853    0.9547    1.1918 N.3       1 <1>        -0.3077 
     16 H1         -8.9418    3.3311   -4.1214 H         1 <1>         0.0520 
     17 H2         -7.0617    3.0329   -2.5762 H         1 <1>         0.0637 
     18 H3         -9.5341   -0.9129   -4.2492 H         1 <1>         0.0529 
     19 H4        -10.1971    1.3585   -4.9541 H         1 <1>         0.0621 
     20 H5         -7.9757   -2.3297   -3.1006 H         1 <1>         0.1747 
     21 H6         -6.7513   -1.6642   -2.0006 H         1 <1>         0.1747 
     22 H7         -5.8001    2.6047   -0.6079 H         1 <1>         0.0524 
     23 H8         -4.7124    2.2399   -1.9890 H         1 <1>         0.0524 
     24 H9         -3.5156    0.5642   -0.5451 H         1 <1>         0.0742 
     25 H10        -1.8294    1.4537    1.0948 H         1 <1>         0.2540 
     26 H11        -5.1316    1.7883    1.7177 H         1 <1>         0.1214 
     27 H12        -3.9601    0.4714    1.8328 H         1 <1>         0.1214 
@<TRIPOS>BOND
     1    2    1 ar   
     2    2    3 ar   
     3    3    4 ar   
     4    4    5 ar   
     5    6    5 ar   
     6    1    6 ar   
     7    9    8 2    
     8    4    7 1    
     9    1   16 1    
    10    3    9 1    
    11    9   10 1    
    12   10   11 1    
    13   11   12 1    
    14   12   13 1    
    15   12   14 2    
    16   11   15 1    
    17    2   17 1    
    18    5   18 1    
    19    6   19 1    
    20    7   20 1    
    21    7   21 1    
    22   10   22 1    
    23   10   23 1    
    24   11   24 1    
    25   13   25 1    
    26   15   26 1    
    27   15   27 1    
@<TRIPOS>SUBSTRUCTURE
     1 ****        2 TEMP              0 ****  ****    0 ROOT 
@<TRIPOS>NORMAL
@<TRIPOS>FF_PBC
FORCE_FIELD_SETUP_FEATURE Force Field Setup information
v1.0  0 0.000000 0.000000 0.000000 0.000000 0.000000 0.000000 NONE 0 0 0 0 1 0 0 0 0 0 0 0 0
@<TRIPOS>RENDERING_ATTRS
ANTIALIASED_LINES 
1,2,3,4,5,6,7,8,9,10,11,12,13,14,15
