#	Name:			PISM01066
#	Creating user name:	Qinrunwen
#	Creation time:		Sun Mar 31 16:13:06 2019

#	Modifying user name:	Qinrunwen
#	Modification time:	Sun Mar 31 16:23:25 2019

@<TRIPOS>MOLECULE
PISM01066
   80    83     1     1     0
SMALL
GAST_HUCK


@<TRIPOS>ATOM
      1 C1         22.1402  -13.4401  -10.0224 C.ar      1 <1>         0.0960 
      2 C2         22.6956  -13.5151  -11.3016 C.ar      1 <1>        -0.0333 
      3 C3         21.9965  -14.1394  -12.3375 C.ar      1 <1>        -0.0569 
      4 C4         20.7298  -14.6834  -12.1004 C.ar      1 <1>         0.0363 
      5 C5         20.1795  -14.6089  -10.8157 C.ar      1 <1>        -0.0474 
      6 C6         20.8595  -13.9552   -9.7799 C.ar      1 <1>        -0.0040 
      7 C7         20.2086  -13.8104   -8.3952 C.3       1 <1>        -0.0143 
      8 C8         18.7174  -13.5937   -8.5122 C.2       1 <1>        -0.0995 
      9 C9         17.7656  -14.3360   -7.9230 C.2       1 <1>        -0.0848 
     10 C10        18.0822  -15.5136   -7.0279 C.3       1 <1>        -0.0400 
     11 C11        16.2954  -14.0357   -8.1217 C.3       1 <1>        -0.0400 
     12 C12        19.9877  -15.3488  -13.2420 C.2       1 <1>         0.2139 
     13 N13        18.7041  -15.1504  -13.4022 N.pl3     1 <1>        -0.2487 
     14 C14        17.9381  -15.7008  -14.3272 C.2       1 <1>         0.1610 
     15 C15        16.6911  -15.2048  -14.3897 C.2       1 <1>         0.1154 
     16 C16        18.2925  -16.7814  -15.2924 C.2       1 <1>         0.2784 
     17 C17        15.7212  -15.7124  -15.4419 C.ar      1 <1>         0.0283 
     18 C18        16.2246  -16.5568  -16.4350 C.ar      1 <1>         0.1291 
     19 O19        17.5102  -17.0730  -16.3303 O.3       1 <1>        -0.2210 
     20 C20        15.4455  -16.9092  -17.5431 C.ar      1 <1>         0.0184 
     21 O21        20.6874  -16.0232  -13.9736 O.2       1 <1>        -0.3748 
     22 O22        19.2729  -17.4964  -15.1968 O.2       1 <1>        -0.3819 
     23 C23        14.3601  -15.3847  -15.4865 C.ar      1 <1>        -0.0732 
     24 C24        13.5829  -15.7111  -16.6021 C.ar      1 <1>        -0.0482 
     25 C25        14.1387  -16.4277  -17.6685 C.ar      1 <1>         0.0894 
     26 O26        13.4266  -16.6724  -18.8545 O.3       1 <1>        -0.2916 
     27 C27        16.0193  -17.8282  -18.6296 C.3       1 <1>        -0.0348 
     28 O28        22.8786  -12.8519   -8.9978 O.3       1 <1>        -0.3331 
     29 C29        12.3883  -15.7802  -19.3090 C.3       1 <1>         0.2084 
     30 C30        12.8452  -14.2913  -19.3882 C.3       1 <1>         0.1429 
     31 C31        12.9269  -13.7983  -20.8559 C.3       1 <1>         0.1476 
     32 C32        13.6419  -14.9145  -21.6668 C.3       1 <1>         0.1196 
     33 O33        11.8285  -16.2241  -20.5586 O.3       1 <1>        -0.3365 
     34 C34        12.7298  -16.1884  -21.6883 C.3       1 <1>         0.0962 
     35 C35        11.7672  -16.2034  -22.9139 C.3       1 <1>        -0.0334 
     36 C36        13.5834  -17.4873  -21.7777 C.3       1 <1>        -0.0334 
     37 O37        12.0051  -13.4132  -18.6130 O.3       1 <1>        -0.3833 
     38 O38        11.5941  -13.4904  -21.3238 O.3       1 <1>        -0.2552 
     39 C39        11.5673  -12.8429  -22.4982 C.2       1 <1>         0.3173 
     40 O40        12.5705  -12.5322  -23.1183 O.2       1 <1>        -0.3777 
     41 N41        10.3282  -12.5657  -22.9354 N.am      1 <1>        -0.2763 
     42 O42        16.3683  -14.2393  -13.5115 O.3       1 <1>        -0.3408 
     43 O43        14.9065  -15.2647  -21.0464 O.3       1 <1>        -0.3739 
     44 C44        15.9450  -14.2680  -21.1280 C.3       1 <1>         0.0371 
     45 H1         23.6759  -13.0873  -11.4854 H         1 <1>         0.0536 
     46 H2         22.4366  -14.1996  -13.3281 H         1 <1>         0.0586 
     47 H3         19.2204  -15.0740  -10.6161 H         1 <1>         0.0577 
     48 H4         20.6089  -12.9275   -7.8728 H         1 <1>         0.0479 
     49 H5         20.4858  -14.7052   -7.8206 H         1 <1>         0.0479 
     50 H6         18.4244  -12.7514   -9.1403 H         1 <1>         0.0258 
     51 H7         17.1733  -15.9304   -6.5674 H         1 <1>         0.0378 
     52 H8         18.7547  -15.2043   -6.2134 H         1 <1>         0.0378 
     53 H9         18.5612  -16.3095   -7.6183 H         1 <1>         0.0378 
     54 H10        16.1169  -13.1924   -8.8062 H         1 <1>         0.0378 
     55 H11        15.8404  -13.7907   -7.1499 H         1 <1>         0.0378 
     56 H12        15.7948  -14.9240   -8.5365 H         1 <1>         0.0378 
     57 H13        18.2598  -14.4664  -12.7646 H         1 <1>         0.2029 
     58 H14        13.8699  -14.8785  -14.6639 H         1 <1>         0.0502 
     59 H15        12.5468  -15.3970  -16.6163 H         1 <1>         0.0455 
     60 H16        16.9159  -18.3702  -18.2948 H         1 <1>         0.0345 
     61 H17        16.2846  -17.2158  -19.5036 H         1 <1>         0.0345 
     62 H18        15.2652  -18.5750  -18.9190 H         1 <1>         0.0345 
     63 H19        23.0723  -13.4853   -8.3156 H         1 <1>         0.2478 
     64 H20        11.5380  -15.8682  -18.6178 H         1 <1>         0.0991 
     65 H21        13.8497  -14.2137  -18.9439 H         1 <1>         0.0679 
     66 H22        13.4983  -12.8557  -20.8479 H         1 <1>         0.0703 
     67 H23        13.8398  -14.6075  -22.7051 H         1 <1>         0.0655 
     68 H24        12.3236  -16.1635  -23.8631 H         1 <1>         0.0258 
     69 H25        11.0646  -15.3611  -22.8887 H         1 <1>         0.0258 
     70 H26        11.1640  -17.1249  -22.9097 H         1 <1>         0.0258 
     71 H27        12.9356  -18.3761  -21.8097 H         1 <1>         0.0258 
     72 H28        14.2550  -17.6049  -20.9215 H         1 <1>         0.0258 
     73 H29        14.1996  -17.4645  -22.6898 H         1 <1>         0.0258 
     74 H30        11.1233  -13.3627  -18.9695 H         1 <1>         0.2101 
     75 H31         9.5257  -12.8277  -22.4017 H         1 <1>         0.1831 
     76 H32        10.2233  -12.0895  -23.8068 H         1 <1>         0.1831 
     77 H33        15.5258  -13.8186  -13.6206 H         1 <1>         0.2445 
     78 H34        16.8477  -14.7217  -20.6924 H         1 <1>         0.0524 
     79 H35        15.7265  -13.3580  -20.5518 H         1 <1>         0.0524 
     80 H36        16.1642  -13.9961  -22.1727 H         1 <1>         0.0524 
@<TRIPOS>BOND
     1    2    1 ar   
     2    2    3 ar   
     3    3    4 ar   
     4    4    5 ar   
     5    5    6 ar   
     6    1    6 ar   
     7    6    7 1    
     8    7    8 1    
     9    8    9 2    
    10    9   10 1    
    11    9   11 1    
    12    4   12 1    
    13   12   13 1    
    14   13   14 1    
    15   14   15 2    
    16   14   16 1    
    17   15   17 1    
    18   17   18 ar   
    19   16   19 1    
    20   19   18 1    
    21   18   20 ar   
    22   12   21 2    
    23   16   22 2    
    24   17   23 ar   
    25   23   24 ar   
    26   24   25 ar   
    27   20   25 ar   
    28   25   26 1    
    29   20   27 1    
    30    1   28 1    
    31   26   29 1    
    32   29   30 1    
    33   30   31 1    
    34   29   33 1    
    35   33   34 1    
    36   34   32 1    
    37   31   32 1    
    38   34   35 1    
    39   34   36 1    
    40   30   37 1    
    41   31   38 1    
    42   38   39 1    
    43   39   40 2    
    44   39   41 am   
    45   15   42 1    
    46   32   43 1    
    47   43   44 1    
    48    2   45 1    
    49    3   46 1    
    50    5   47 1    
    51    7   48 1    
    52    7   49 1    
    53    8   50 1    
    54   10   51 1    
    55   10   52 1    
    56   10   53 1    
    57   11   54 1    
    58   11   55 1    
    59   11   56 1    
    60   13   57 1    
    61   23   58 1    
    62   24   59 1    
    63   27   60 1    
    64   27   61 1    
    65   27   62 1    
    66   28   63 1    
    67   29   64 1    
    68   30   65 1    
    69   31   66 1    
    70   32   67 1    
    71   35   68 1    
    72   35   69 1    
    73   35   70 1    
    74   36   71 1    
    75   36   72 1    
    76   36   73 1    
    77   37   74 1    
    78   41   75 1    
    79   41   76 1    
    80   42   77 1    
    81   44   78 1    
    82   44   79 1    
    83   44   80 1    
@<TRIPOS>SUBSTRUCTURE
     1 ****        2 TEMP              0 ****  ****    0 ROOT 
@<TRIPOS>NORMAL
@<TRIPOS>FF_PBC
FORCE_FIELD_SETUP_FEATURE Force Field Setup information
v1.0  0 0.000000 0.000000 0.000000 0.000000 0.000000 0.000000 NONE 0 0 0 0 1 0 0 0 0 0 0 0 0
