#	Name:			PISM00378
#	Creating user name:	baoopengkun
#	Creation time:		Sun Mar 31 21:57:26 2019

#	Modifying user name:	baoopengkun
#	Modification time:	Sun Mar 31 22:02:49 2019

@<TRIPOS>MOLECULE
PISM00378
   61    62     1     1     0
SMALL
GAST_HUCK


@<TRIPOS>ATOM
      1 C1         14.1294   -0.3144   -3.1197 C.2       1 <1>         0.1294 
      2 C2         13.4022    0.5131   -4.1607 C.ar      1 <1>         0.0319 
      3 C3         13.8436    1.8129   -4.4372 C.ar      1 <1>        -0.0423 
      4 C4         13.1902    2.6035   -5.3876 C.ar      1 <1>        -0.0408 
      5 C5         12.0793    2.0990   -6.0675 C.ar      1 <1>         0.0293 
      6 C6         11.6307    0.8029   -5.7977 C.ar      1 <1>        -0.0408 
      7 C7         12.2957    0.0109   -4.8580 C.ar      1 <1>        -0.0423 
      8 C8         11.3946    2.8969   -7.0526 C.1       1 <1>        -0.0603 
      9 C9         10.8227    3.5408   -7.8934 C.1       1 <1>        -0.0659 
     10 C10        10.1364    4.2892   -8.9403 C.3       1 <1>         0.1152 
     11 O11         8.7063    4.1765   -8.8014 O.3       1 <1>        -0.3382 
     12 C12         8.1135    5.0010   -7.7754 C.3       1 <1>         0.1161 
     13 C13         7.9642    6.4974   -8.1620 C.3       1 <1>        -0.0149 
     14 C14         6.8602    6.7290   -9.2345 C.3       1 <1>        -0.0599 
     15 C15         5.4889    6.2811   -8.6189 C.3       1 <1>         0.0164 
     16 C16         5.5855    4.9756   -7.8494 C.2       1 <1>        -0.0800 
     17 C17         6.7534    4.4127   -7.5026 C.2       1 <1>        -0.0120 
     18 C18         4.2771    4.3284   -7.4370 C.3       1 <1>        -0.0473 
     19 C19         7.1828    5.9265  -10.5340 C.3       1 <1>        -0.0740 
     20 C20         6.8678    8.2425   -9.6197 C.3       1 <1>        -0.0740 
     21 C21         4.4145    6.2377   -9.6911 C.2       1 <1>        -0.1031 
     22 C22         4.1457    5.1650  -10.4496 C.2       1 <1>        -0.0274 
     23 C23         3.0892    5.1293  -11.4868 C.2       1 <1>         0.0135 
     24 C24         1.8456    5.9661  -11.2723 C.3       1 <1>        -0.0153 
     25 C25         3.1922    4.3730  -12.5930 C.2       1 <1>         0.0548 
     26 C26         4.3189    3.5132  -13.0076 C.2       1 <1>         0.2661 
     27 O27         5.4088    3.5945  -12.4649 O.2       1 <1>        -0.3516 
     28 O28         4.1444    2.6417  -14.0028 O.3       1 <1>        -0.2932 
     29 O29         5.0606    7.1659   -7.5667 O.3       1 <1>        -0.4739 
     30 C30        13.7095   -1.7160   -2.7629 C.3       1 <1>         0.0108 
     31 O31        15.0962    0.1615   -2.5453 O.2       1 <1>        -0.3791 
     32 H1         14.7026    2.2185   -3.9117 H         1 <1>         0.0670 
     33 H2         13.5460    3.6077   -5.5983 H         1 <1>         0.0640 
     34 H3         10.7658    0.4100   -6.3239 H         1 <1>         0.0640 
     35 H4         11.9398   -0.9979   -4.6835 H         1 <1>         0.0670 
     36 H5         10.3946    3.7877   -9.8837 H         1 <1>         0.0704 
     37 H6         10.5210    5.3170   -8.9895 H         1 <1>         0.0704 
     38 H7          8.6992    4.9264   -6.8425 H         1 <1>         0.0935 
     39 H8          8.9225    6.9098   -8.5055 H         1 <1>         0.0325 
     40 H9          7.6774    7.0578   -7.2558 H         1 <1>         0.0325 
     41 H10         6.7466    3.4572   -6.9776 H         1 <1>         0.1201 
     42 H11         3.9509    3.5757   -8.1675 H         1 <1>         0.0360 
     43 H12         3.4851    5.0855   -7.3332 H         1 <1>         0.0360 
     44 H13         4.3808    3.8290   -6.4622 H         1 <1>         0.0360 
     45 H14         7.0509    4.8465  -10.3933 H         1 <1>         0.0219 
     46 H15         8.2218    6.1037  -10.8494 H         1 <1>         0.0219 
     47 H16         6.5267    6.2348  -11.3624 H         1 <1>         0.0219 
     48 H17         6.0188    8.4839  -10.2768 H         1 <1>         0.0219 
     49 H18         7.7950    8.4971  -10.1563 H         1 <1>         0.0219 
     50 H19         6.8199    8.8923   -8.7336 H         1 <1>         0.0219 
     51 H20         3.8431    7.1500   -9.8560 H         1 <1>         0.0477 
     52 H21         4.7351    4.2642  -10.2966 H         1 <1>         0.1020 
     53 H22         1.9931    6.9607  -11.7202 H         1 <1>         0.0428 
     54 H23         1.6394    6.0871  -10.1978 H         1 <1>         0.0428 
     55 H24         0.9551    5.5053  -11.7254 H         1 <1>         0.0428 
     56 H25         2.3680    4.3653  -13.3058 H         1 <1>         0.0888 
     57 H26         4.9355    2.1450  -14.1837 H         1 <1>         0.2516 
     58 H27         4.8364    8.0435   -7.8525 H         1 <1>         0.1784 
     59 H28        12.6609   -1.7212   -2.4305 H         1 <1>         0.0449 
     60 H29        14.3346   -2.1078   -1.9458 H         1 <1>         0.0449 
     61 H30        13.8262   -2.3736   -3.6381 H         1 <1>         0.0449 
@<TRIPOS>BOND
     1    2    1 1    
     2    2    3 ar   
     3    3    4 ar   
     4    4    5 ar   
     5    5    6 ar   
     6    6    7 ar   
     7    2    7 ar   
     8    5    8 1    
     9    8    9 3    
    10    9   10 1    
    11   10   11 1    
    12   11   12 1    
    13   12   13 1    
    14   13   14 1    
    15   14   15 1    
    16   15   16 1    
    17   16   17 2    
    18   12   17 1    
    19   16   18 1    
    20   14   19 1    
    21   14   20 1    
    22   15   21 1    
    23   21   22 2    
    24   22   23 1    
    25   23   24 1    
    26   23   25 2    
    27   25   26 1    
    28   26   27 2    
    29   26   28 1    
    30   15   29 1    
    31    1   30 1    
    32    1   31 2    
    33    3   32 1    
    34    4   33 1    
    35    6   34 1    
    36    7   35 1    
    37   10   36 1    
    38   10   37 1    
    39   12   38 1    
    40   13   39 1    
    41   13   40 1    
    42   17   41 1    
    43   18   42 1    
    44   18   43 1    
    45   18   44 1    
    46   19   45 1    
    47   19   46 1    
    48   19   47 1    
    49   20   48 1    
    50   20   49 1    
    51   20   50 1    
    52   21   51 1    
    53   22   52 1    
    54   24   53 1    
    55   24   54 1    
    56   24   55 1    
    57   25   56 1    
    58   28   57 1    
    59   29   58 1    
    60   30   59 1    
    61   30   60 1    
    62   30   61 1    
@<TRIPOS>SUBSTRUCTURE
     1 ****        2 TEMP              0 ****  ****    0 ROOT 
@<TRIPOS>NORMAL
@<TRIPOS>FF_PBC
FORCE_FIELD_SETUP_FEATURE Force Field Setup information
v1.0  0 0.000000 0.000000 0.000000 0.000000 0.000000 0.000000 NONE 0 0 0 0 1 0 0 0 0 0 0 0 0
