#	Name:			M00393
#	Creating user name:	XiyangLee
#	Creation time:		Tue Aug 31 18:09:05 2021

#	Modifying user name:	XiyangLee
#	Modification time:	Tue Aug 31 18:10:10 2021

@<TRIPOS>MOLECULE
M00393
   51    53     1     1     1
SMALL
GAST_HUCK
****
From 3DB ct
@<TRIPOS>ATOM
      1 O          -2.5277    0.0236    1.8601 O.3       1 <1>        -0.3486 
      2 C          -1.7223    0.0467    0.7219 C.3       1 <1>         0.1596 
      3 C          -3.2980    0.2901    0.7052 C.3       1 <1>         0.1104 
      4 C          -4.2983   -0.8873    0.5942 C.3       1 <1>         0.0058 
      5 H          -5.2097   -0.5393    0.0842 H         1 <1>         0.0319 
      6 H          -4.5906   -1.2066    1.6085 H         1 <1>         0.0319 
      7 C          -3.7064   -2.0888   -0.1876 C.3       1 <1>         0.0586 
      8 H          -4.3522   -2.9708   -0.0150 H         1 <1>         0.0594 
      9 O          -3.6769   -1.8469   -1.6042 O.3       1 <1>        -0.3917 
     10 H          -4.5334   -1.6810   -1.9857 H         1 <1>         0.2098 
     11 C          -2.2820   -2.4279    0.3252 C.3       1 <1>        -0.0181 
     12 H          -2.3643   -2.6561    1.4005 H         1 <1>         0.0296 
     13 H          -1.9330   -3.3405   -0.1841 H         1 <1>         0.0296 
     14 C          -1.2294   -1.2935    0.1176 C.3       1 <1>         0.0095 
     15 C          -0.8959   -1.0569   -1.3861 C.3       1 <1>        -0.0562 
     16 H          -0.0199   -0.3999   -1.4881 H         1 <1>         0.0236 
     17 H          -1.7223   -0.5604   -1.9124 H         1 <1>         0.0236 
     18 H          -0.6688   -2.0080   -1.8909 H         1 <1>         0.0236 
     19 C           0.0804   -1.6972    0.8554 C.3       1 <1>        -0.0562 
     20 H           0.8403   -0.9091    0.7599 H         1 <1>         0.0236 
     21 H           0.4903   -2.6284    0.4353 H         1 <1>         0.0236 
     22 H          -0.1089   -1.8493    1.9290 H         1 <1>         0.0236 
     23 C          -3.8937    1.7075    0.8906 C.3       1 <1>        -0.0321 
     24 H          -3.1267    2.4623    1.1175 H         1 <1>         0.0259 
     25 H          -4.6225    1.6922    1.7149 H         1 <1>         0.0259 
     26 H          -4.4090    1.9977   -0.0367 H         1 <1>         0.0259 
     27 C          -0.9221    1.2453    0.4954 C.1       1 <1>        -0.0720 
     28 C          -0.2587    2.2294    0.2987 C.1       1 <1>        -0.0830 
     29 C           0.5384    3.4047    0.0559 C.2       1 <1>        -0.0109 
     30 C          -0.1993    4.6780   -0.2779 C.3       1 <1>        -0.0336 
     31 H           0.4749    5.5315   -0.4450 H         1 <1>         0.0355 
     32 H          -0.7952    4.5209   -1.1895 H         1 <1>         0.0355 
     33 H          -0.8796    4.9285    0.5500 H         1 <1>         0.0355 
     34 C           1.8763    3.3356    0.1236 C.2       1 <1>        -0.0559 
     35 H           2.4710    4.2261   -0.0832 H         1 <1>         0.0549 
     36 C           2.6311    2.0698    0.4637 C.3       1 <1>         0.0458 
     37 H           3.5798    2.3357    0.9571 H         1 <1>         0.0660 
     38 H           2.0412    1.4653    1.1715 H         1 <1>         0.0660 
     39 N           2.9166    1.3149   -0.7557 N.pl3     1 <1>        -0.3131 
     40 H           2.8902    1.8082   -1.6629 H         1 <1>         0.1783 
     41 C           3.0666   -0.0348   -0.7438 C.ar      1 <1>         0.0396 
     42 C           3.5764   -0.7023    0.3777 C.ar      1 <1>        -0.0444 
     43 H           3.9304   -0.1476    1.2391 H         1 <1>         0.0515 
     44 C           3.6425   -2.0987    0.4040 C.ar      1 <1>        -0.0737 
     45 H           4.0119   -2.6081    1.2888 H         1 <1>         0.0583 
     46 C           3.2351   -2.8411   -0.7071 C.ar      1 <1>        -0.0751 
     47 H           3.2774   -3.9258   -0.6838 H         1 <1>         0.0505 
     48 C           2.7749   -2.1815   -1.8493 C.ar      1 <1>        -0.0737 
     49 H           2.4704   -2.7534   -2.7205 H         1 <1>         0.0583 
     50 C           2.7051   -0.7856   -1.8693 C.ar      1 <1>        -0.0444 
     51 H           2.3586   -0.2870   -2.7687 H         1 <1>         0.0515 
@<TRIPOS>BOND
     1    1    2 1    
     2    2    3 1    
     3    3    1 1    
     4    3    4 1    
     5    4    5 1    
     6    4    6 1    
     7    4    7 1    
     8    7    8 1    
     9    7    9 1    
    10    9   10 1    
    11    7   11 1    
    12   11   12 1    
    13   11   13 1    
    14   11   14 1    
    15   14    2 1    
    16   14   15 1    
    17   15   16 1    
    18   15   17 1    
    19   15   18 1    
    20   14   19 1    
    21   19   20 1    
    22   19   21 1    
    23   19   22 1    
    24    3   23 1    
    25   23   24 1    
    26   23   25 1    
    27   23   26 1    
    28    2   27 1    
    29   27   28 3    
    30   28   29 1    
    31   29   30 1    
    32   30   31 1    
    33   30   32 1    
    34   30   33 1    
    35   29   34 2    
    36   34   35 1    
    37   34   36 1    
    38   36   37 1    
    39   36   38 1    
    40   36   39 1    
    41   39   40 1    
    42   39   41 1    
    43   41   42 ar   
    44   42   43 1    
    45   42   44 ar   
    46   44   45 1    
    47   44   46 ar   
    48   46   47 1    
    49   46   48 ar   
    50   48   49 1    
    51   48   50 ar   
    52   50   51 1    
    53   50   41 ar   
@<TRIPOS>SUBSTRUCTURE
     1 ****        1 TEMP              0 ****  ****    0 ROOT 
@<TRIPOS>SET
UNITY_3DHIT     STATIC     ATOMS    <user>   **** Atoms matching 3D or FLEX Search
0
@<TRIPOS>NORMAL
@<TRIPOS>FF_PBC
FORCE_FIELD_SETUP_FEATURE Force Field Setup information
v1.0  0 0.000000 0.000000 0.000000 0.000000 0.000000 0.000000 NONE 0 0 0 0 1 0 0 0 0 0 0 0 0
@<TRIPOS>UNITY_BOND_ATTR
35 1
S N
