#	Name:			PISM00084
#	Creating user name:	baoopengkun
#	Creation time:		Thu Dec 27 16:26:38 2018

#	Modifying user name:	baoopengkun
#	Modification time:	Thu Dec 27 16:28:01 2018

@<TRIPOS>MOLECULE
PISM00084
   38    39     1     1     0
SMALL
GAST_HUCK


@<TRIPOS>ATOM
      1 C1          2.3909   -2.3978  -21.2608 C.3       1 <1>         0.0311 
      2 C2          3.0471   -1.0503  -21.0968 C.2       1 <1>         0.1974 
      3 O3          3.9928   -0.7840  -21.8197 O.2       1 <1>        -0.3798 
      4 N4          2.5693   -0.2258  -20.2018 N.pl3     1 <1>        -0.2423 
      5 C5          3.1055    1.0021  -19.9912 C.ar      1 <1>         0.0514 
      6 C6          4.4897    1.1877  -19.8907 C.ar      1 <1>        -0.0516 
      7 C7          5.0177    2.4674  -19.6972 C.ar      1 <1>        -0.0815 
      8 C8          4.1619    3.5627  -19.5527 C.ar      1 <1>        -0.0506 
      9 C9          2.7770    3.3820  -19.6090 C.ar      1 <1>         0.0553 
     10 C10         2.2578    2.1071  -19.8583 C.ar      1 <1>        -0.0179 
     11 N11         1.9555    4.4448  -19.4355 N.pl3     1 <1>        -0.2408 
     12 C12         1.0518    4.4806  -18.4898 C.2       1 <1>         0.1607 
     13 S13         0.8827    3.1668  -17.3914 S.2       1 <1>        -0.2839 
     14 N14         0.2458    5.5640  -18.3614 N.am      1 <1>        -0.2665 
     15 C15        -0.7410    5.6395  -17.2829 C.3       1 <1>         0.0715 
     16 C16        -0.0349    5.7074  -15.9216 C.ar      1 <1>        -0.0186 
     17 C17         1.1093    6.4990  -15.7711 C.ar      1 <1>        -0.0576 
     18 C18         1.7747    6.5536  -14.5430 C.ar      1 <1>        -0.0545 
     19 C19         1.2938    5.8223  -13.4541 C.ar      1 <1>         0.0330 
     20 C20         0.1461    5.0383  -13.5958 C.ar      1 <1>        -0.0545 
     21 C21        -0.5169    4.9822  -14.8254 C.ar      1 <1>        -0.0576 
     22 Cl22        2.1278    5.8886  -11.9150 Cl        1 <1>        -0.0771 
     23 H1          2.4137   -2.9416  -20.3050 H         1 <1>         0.0475 
     24 H2          2.9171   -2.9973  -22.0193 H         1 <1>         0.0475 
     25 H3          1.3467   -2.2639  -21.5793 H         1 <1>         0.0475 
     26 H4          1.7442   -0.5009  -19.6485 H         1 <1>         0.2106 
     27 H5          5.1644    0.3404  -19.9534 H         1 <1>         0.0434 
     28 H6          6.0933    2.6101  -19.6551 H         1 <1>         0.0558 
     29 H7          4.5726    4.5543  -19.3919 H         1 <1>         0.0436 
     30 H8          1.1858    1.9748  -19.9584 H         1 <1>         0.0439 
     31 H9          2.0748    5.2531  -20.0615 H         1 <1>         0.2178 
     32 H10         0.3167    6.3445  -18.9853 H         1 <1>         0.2022 
     33 H11        -1.4216    4.7749  -17.3418 H         1 <1>         0.0710 
     34 H12        -1.3573    6.5497  -17.3673 H         1 <1>         0.0710 
     35 H13         1.4875    7.0754  -16.6090 H         1 <1>         0.0558 
     36 H14         2.6656    7.1633  -14.4327 H         1 <1>         0.0606 
     37 H15        -0.2285    4.4727  -12.7489 H         1 <1>         0.0606 
     38 H16        -1.4077    4.3699  -14.9220 H         1 <1>         0.0558 
@<TRIPOS>BOND
     1    2    1 1    
     2    2    3 2    
     3    2    4 1    
     4    4    5 1    
     5    5    6 ar   
     6    6    7 ar   
     7    7    8 ar   
     8    8    9 ar   
     9    9   10 ar   
    10    5   10 ar   
    11    9   11 1    
    12   11   12 1    
    13   12   13 2    
    14   12   14 am   
    15   14   15 1    
    16   15   16 1    
    17   16   17 ar   
    18   17   18 ar   
    19   18   19 ar   
    20   19   20 ar   
    21   20   21 ar   
    22   16   21 ar   
    23   19   22 1    
    24    1   23 1    
    25    1   24 1    
    26    1   25 1    
    27    4   26 1    
    28    6   27 1    
    29    7   28 1    
    30    8   29 1    
    31   10   30 1    
    32   11   31 1    
    33   14   32 1    
    34   15   33 1    
    35   15   34 1    
    36   17   35 1    
    37   18   36 1    
    38   20   37 1    
    39   21   38 1    
@<TRIPOS>SUBSTRUCTURE
     1 ****        2 TEMP              0 ****  ****    0 ROOT 
@<TRIPOS>NORMAL
@<TRIPOS>FF_PBC
FORCE_FIELD_SETUP_FEATURE Force Field Setup information
v1.0  0 0.000000 0.000000 0.000000 0.000000 0.000000 0.000000 NONE 0 0 0 0 1 0 0 0 0 0 0 0 0
