#	Name:			PISM00697
#	Creating user name:	baoopengkun
#	Creation time:		Sun Jan 20 21:12:11 2019

#	Modifying user name:	baoopengkun
#	Modification time:	Sun Jan 20 21:15:54 2019

@<TRIPOS>MOLECULE
PISM00697
   32    33     1     1     0
SMALL
GAST_HUCK


@<TRIPOS>ATOM
      1 F1         -2.2448    3.2296    6.7391 F         1 <1>        -0.1794 
      2 C2         -1.0697    2.7288    6.3672 C.ar      1 <1>         0.1375 
      3 C3          0.1080    3.4246    6.6511 C.ar      1 <1>        -0.0223 
      4 C4          1.3426    2.9000    6.2573 C.ar      1 <1>        -0.0437 
      5 C5          1.4005    1.7020    5.5363 C.ar      1 <1>         0.0460 
      6 C6          0.2217    0.9933    5.2818 C.ar      1 <1>        -0.0437 
      7 C7         -1.0119    1.5061    5.6940 C.ar      1 <1>        -0.0223 
      8 C8          2.7192    1.1487    5.0391 C.2       1 <1>         0.2060 
      9 O9          2.9472   -0.0199    5.3059 O.2       1 <1>        -0.3862 
     10 N10         3.6076    1.8929    4.3279 N.am      1 <1>        -0.2648 
     11 C11         3.2576    3.2380    3.8616 C.3       1 <1>         0.0242 
     12 H1          0.0579    4.3705    7.1803 H         1 <1>         0.0616 
     13 H2          2.2559    3.4212    6.5230 H         1 <1>         0.0659 
     14 H3          0.2653    0.0422    4.7597 H         1 <1>         0.0659 
     15 H4         -1.9276    0.9598    5.4931 H         1 <1>         0.0616 
     16 C16         4.9093    1.2882    4.0387 C.3       1 <1>         0.0666 
     17 C17         5.6319    0.9463    5.3495 C.ar      1 <1>        -0.0208 
     18 C18         5.7405    1.9184    6.3501 C.ar      1 <1>        -0.0584 
     19 C19         6.3877    1.6265    7.5542 C.ar      1 <1>        -0.0685 
     20 C20         6.9357    0.3580    7.7628 C.ar      1 <1>        -0.0687 
     21 C21         6.8334   -0.6161    6.7659 C.ar      1 <1>        -0.0685 
     22 C22         6.1820   -0.3230    5.5641 C.ar      1 <1>        -0.0584 
     23 H5          3.7382    3.4395    2.8923 H         1 <1>         0.0487 
     24 H6          3.6115    3.9947    4.5766 H         1 <1>         0.0487 
     25 H7          2.1756    3.3645    3.7051 H         1 <1>         0.0487 
     26 H8          5.5673    1.9764    3.4864 H         1 <1>         0.0685 
     27 H9          4.7600    0.3923    3.4154 H         1 <1>         0.0685 
     28 H10         5.3208    2.9062    6.1947 H         1 <1>         0.0557 
     29 H11         6.4647    2.3846    8.3275 H         1 <1>         0.0599 
     30 H12         7.4392    0.1295    8.6971 H         1 <1>         0.0559 
     31 H13         7.2597   -1.6019    6.9257 H         1 <1>         0.0599 
     32 H14         6.1060   -1.0898    4.8001 H         1 <1>         0.0557 
@<TRIPOS>BOND
     1    2    1 1    
     2    2    3 ar   
     3    3    4 ar   
     4    4    5 ar   
     5    6    5 ar   
     6    7    6 ar   
     7    2    7 ar   
     8    5    8 1    
     9    8    9 2    
    10    8   10 am   
    11   10   11 1    
    12    3   12 1    
    13    4   13 1    
    14    6   14 1    
    15    7   15 1    
    16   11   23 1    
    17   10   16 1    
    18   16   17 1    
    19   17   18 ar   
    20   18   19 ar   
    21   19   20 ar   
    22   21   20 ar   
    23   22   21 ar   
    24   17   22 ar   
    25   11   24 1    
    26   11   25 1    
    27   16   26 1    
    28   16   27 1    
    29   18   28 1    
    30   19   29 1    
    31   20   30 1    
    32   21   31 1    
    33   22   32 1    
@<TRIPOS>SUBSTRUCTURE
     1 ****        2 TEMP              0 ****  ****    0 ROOT 
@<TRIPOS>NORMAL
@<TRIPOS>FF_PBC
FORCE_FIELD_SETUP_FEATURE Force Field Setup information
v1.0  0 0.000000 0.000000 0.000000 0.000000 0.000000 0.000000 NONE 0 0 0 0 1 0 0 0 0 0 0 0 0
