#	Name:			PISM00376
#	Creating user name:	baoopengkun
#	Creation time:		Sun Mar 31 21:57:26 2019

#	Modifying user name:	baoopengkun
#	Modification time:	Sun Mar 31 22:01:04 2019

@<TRIPOS>MOLECULE
PISM00376
   59    60     1     1     0
SMALL
GAST_HUCK


@<TRIPOS>ATOM
      1 C1         14.7668   -0.6876   -3.5225 C.3       1 <1>        -0.0307 
      2 C2         13.7957    0.3190   -4.1651 C.ar      1 <1>        -0.0453 
      3 C3         14.0493    1.6968   -4.1205 C.ar      1 <1>        -0.0588 
      4 C4         13.1503    2.6040   -4.6920 C.ar      1 <1>        -0.0525 
      5 C5         11.9950    2.1461   -5.3290 C.ar      1 <1>         0.0184 
      6 C6         11.7396    0.7766   -5.3844 C.ar      1 <1>        -0.0525 
      7 C7         12.6373   -0.1313   -4.8111 C.ar      1 <1>        -0.0588 
      8 C8         11.0867    3.0878   -5.9377 C.1       1 <1>        -0.0697 
      9 C9         10.3591    3.8956   -6.4522 C.1       1 <1>        -0.0720 
     10 C10         9.5234    4.9125   -7.0803 C.3       1 <1>         0.1131 
     11 O11         8.1153    4.5626   -7.0211 O.3       1 <1>        -0.3387 
     12 C12         7.3155    5.3730   -6.1294 C.3       1 <1>         0.1161 
     13 C13         7.1154    6.8235   -6.6689 C.3       1 <1>        -0.0149 
     14 C14         5.9335    6.9161   -7.6810 C.3       1 <1>        -0.0599 
     15 C15         4.6171    6.4431   -6.9698 C.3       1 <1>         0.0164 
     16 C16         4.7908    5.1117   -6.2574 C.2       1 <1>        -0.0800 
     17 C17         6.0014    4.6512   -5.9067 C.2       1 <1>        -0.0120 
     18 C18         3.5359    4.3263   -5.9113 C.3       1 <1>        -0.0473 
     19 C19         6.2637    6.0297   -8.9246 C.3       1 <1>        -0.0740 
     20 C20         5.7859    8.3920   -8.1740 C.3       1 <1>        -0.0740 
     21 C21         3.4806    6.4709   -7.9759 C.2       1 <1>        -0.1031 
     22 C22         3.1353    5.4879   -8.8238 C.2       1 <1>        -0.0274 
     23 C23         1.9838    5.5960   -9.7620 C.2       1 <1>         0.0135 
     24 C24         0.8611    6.5739   -9.4415 C.3       1 <1>        -0.0153 
     25 C25         1.9035    4.8478  -10.8793 C.2       1 <1>         0.0548 
     26 C26         2.8769    3.8578  -11.4093 C.2       1 <1>         0.2661 
     27 O27         4.0601    3.9388  -11.1320 O.2       1 <1>        -0.3516 
     28 O28         2.4979    2.8525  -12.2165 O.3       1 <1>        -0.2932 
     29 O29         4.1801    7.3790   -5.9535 O.3       1 <1>        -0.4739 
     30 H2         14.9487    2.0736   -3.6432 H         1 <1>         0.0560 
     31 H3         13.3521    3.6698   -4.6478 H         1 <1>         0.0614 
     32 H4         10.8443    0.4156   -5.8805 H         1 <1>         0.0614 
     33 H5         12.4258   -1.1919   -4.8750 H         1 <1>         0.0560 
     34 H6          9.8423    4.9923   -8.1351 H         1 <1>         0.0698 
     35 H7          9.8040    5.8423   -6.5550 H         1 <1>         0.0698 
     36 H8          7.8181    5.4092   -5.1450 H         1 <1>         0.0935 
     37 H9          8.0368    7.1965   -7.1406 H         1 <1>         0.0325 
     38 H10         6.9255    7.4986   -5.8213 H         1 <1>         0.0325 
     39 H11         6.0529    3.6832   -5.4067 H         1 <1>         0.1201 
     40 H12         3.6299    3.8488   -4.9220 H         1 <1>         0.0360 
     41 H13         3.3606    3.5306   -6.6531 H         1 <1>         0.0360 
     42 H14         2.6510    4.9811   -5.8686 H         1 <1>         0.0360 
     43 H15         7.2935    6.2287   -9.2644 H         1 <1>         0.0219 
     44 H16         5.5927    6.2330   -9.7783 H         1 <1>         0.0219 
     45 H17         6.1871    4.9597   -8.6866 H         1 <1>         0.0219 
     46 H18         5.0303    8.4858   -8.9722 H         1 <1>         0.0219 
     47 H19         5.4924    9.0635   -7.3520 H         1 <1>         0.0219 
     48 H20         6.7449    8.7508   -8.5804 H         1 <1>         0.0219 
     49 H21         2.9207    7.4101   -7.9878 H         1 <1>         0.0477 
     50 H22         3.7267    4.5737   -8.8170 H         1 <1>         0.1020 
     51 H23         0.6824    6.5961   -8.3517 H         1 <1>         0.0428 
     52 H24        -0.1039    6.3115   -9.9105 H         1 <1>         0.0428 
     53 H25         1.1362    7.5879   -9.7708 H         1 <1>         0.0428 
     54 H26         1.0216    4.9755  -11.5063 H         1 <1>         0.0888 
     55 H27         1.5617    2.7895  -12.3613 H         1 <1>         0.2516 
     56 H28         4.7330    7.4465   -5.1834 H         1 <1>         0.1784 
     57 H1         14.2362   -1.5975   -3.1991 H         1 <1>         0.0393 
     58 H29        15.2633   -0.2583   -2.6375 H         1 <1>         0.0393 
     59 H30        15.5363   -0.9731   -4.2578 H         1 <1>         0.0393 
@<TRIPOS>BOND
     1    2    1 1    
     2    2    3 ar   
     3    3    4 ar   
     4    4    5 ar   
     5    5    6 ar   
     6    6    7 ar   
     7    2    7 ar   
     8    5    8 1    
     9    8    9 3    
    10    9   10 1    
    11   10   11 1    
    12   11   12 1    
    13   12   13 1    
    14   13   14 1    
    15   14   15 1    
    16   15   16 1    
    17   16   17 2    
    18   12   17 1    
    19   16   18 1    
    20   14   19 1    
    21   14   20 1    
    22   15   21 1    
    23   21   22 2    
    24   22   23 1    
    25   23   24 1    
    26   23   25 2    
    27   25   26 1    
    28   26   27 2    
    29   26   28 1    
    30   15   29 1    
    31    3   30 1    
    32    4   31 1    
    33    6   32 1    
    34    7   33 1    
    35   10   34 1    
    36   10   35 1    
    37   12   36 1    
    38   13   37 1    
    39   13   38 1    
    40   17   39 1    
    41   18   40 1    
    42   18   41 1    
    43   18   42 1    
    44   19   43 1    
    45   19   44 1    
    46   19   45 1    
    47   20   46 1    
    48   20   47 1    
    49   20   48 1    
    50   21   49 1    
    51   22   50 1    
    52   24   51 1    
    53   24   52 1    
    54   24   53 1    
    55   25   54 1    
    56   28   55 1    
    57   29   56 1    
    58    1   57 1    
    59    1   58 1    
    60    1   59 1    
@<TRIPOS>SUBSTRUCTURE
     1 ****        2 TEMP              0 ****  ****    0 ROOT 
@<TRIPOS>NORMAL
@<TRIPOS>FF_PBC
FORCE_FIELD_SETUP_FEATURE Force Field Setup information
v1.0  0 0.000000 0.000000 0.000000 0.000000 0.000000 0.000000 NONE 0 0 0 0 1 0 0 0 0 0 0 0 0
