#	Name:			PISM00071
#	Creating user name:	baoopengkun
#	Creation time:		Thu Dec 27 11:56:28 2018

#	Modifying user name:	baoopengkun
#	Modification time:	Thu Dec 27 12:01:30 2018

@<TRIPOS>MOLECULE
PISM00071
   44    46     1     1     0
SMALL
GAST_HUCK


@<TRIPOS>ATOM
      1 C1         -6.6324   14.2225   -0.5160 C.2       1 <1>        -0.0428 
      2 C2         -7.7100   14.9500   -0.8190 C.2       1 <1>         0.1898 
      3 C3         -9.0661   14.6773   -0.2967 C.2       1 <1>         0.2526 
      4 O4         -9.2086   13.7366    0.4682 O.2       1 <1>        -0.3725 
      5 N5        -10.0514   15.4541   -0.6624 N.pl3     1 <1>        -0.2418 
      6 C6        -11.3242   15.2675   -0.2325 C.ar      1 <1>         0.0505 
      7 C7        -11.9096   13.9956   -0.2178 C.ar      1 <1>        -0.0517 
      8 C8        -13.2099   13.8223    0.2653 C.ar      1 <1>        -0.0815 
      9 C9        -13.9455   14.9255    0.7063 C.ar      1 <1>        -0.0505 
     10 C10       -13.3861   16.2059    0.6518 C.ar      1 <1>         0.0557 
     11 C11       -12.0757   16.3687    0.1925 C.ar      1 <1>        -0.0180 
     12 N12       -14.0979   17.2863    1.0524 N.pl3     1 <1>        -0.2370 
     13 C13       -15.1997   17.6562    0.4461 C.2       1 <1>         0.1864 
     14 S14       -15.7364   16.7650   -0.9232 S.2       1 <1>        -0.2688 
     15 N15       -15.8961   18.7355    0.8884 N.am      1 <1>        -0.1926 
     16 C16       -17.0516   19.2291    0.3824 C.2       1 <1>         0.2370 
     17 O17       -17.6631   18.7094   -0.5344 O.2       1 <1>        -0.3732 
     18 C18       -17.6669   20.4848    0.9655 C.ar      1 <1>         0.0587 
     19 C19       -16.9167   21.6488    1.1891 C.ar      1 <1>        -0.0249 
     20 C20       -17.5034   22.7192    1.8748 C.ar      1 <1>        -0.0546 
     21 C21       -19.6236   21.5578    1.9216 C.ar      1 <1>        -0.0630 
     22 O22        -7.5092   15.9820   -1.6504 O.3       1 <1>        -0.2498 
     23 C23       -19.0293   20.4657    1.2842 C.ar      1 <1>        -0.0478 
     24 C24        -6.1954   15.8809   -1.8790 C.2       1 <1>         0.0869 
     25 C25       -18.8516   22.6774    2.2400 C.ar      1 <1>        -0.0642 
     26 C26        -5.5637   14.8796   -1.2640 C.2       1 <1>        -0.0553 
     27 C27       -15.4730   21.8011    0.6866 C.3       1 <1>        -0.0274 
     28 H1         -6.5597   13.3491    0.1312 H         1 <1>         0.0437 
     29 H2         -9.8489   16.2513   -1.2853 H         1 <1>         0.2091 
     30 H3        -11.3640   13.1344   -0.5890 H         1 <1>         0.0434 
     31 H4        -13.6498   12.8301    0.2966 H         1 <1>         0.0558 
     32 H5        -14.9500   14.7870    1.0934 H         1 <1>         0.0436 
     33 H6        -11.6399   17.3616    0.1675 H         1 <1>         0.0439 
     34 H7        -13.7357   17.8255    1.8511 H         1 <1>         0.2183 
     35 H8        -15.5478   19.2197    1.6861 H         1 <1>         0.2369 
     36 H9        -16.9123   23.5950    2.1243 H         1 <1>         0.0569 
     37 H10       -20.6803   21.5352    2.1710 H         1 <1>         0.0572 
     38 H11       -19.6301   19.5945    1.0409 H         1 <1>         0.0651 
     39 H12        -5.6758   16.5815   -2.5328 H         1 <1>         0.1042 
     40 H13       -19.2996   23.5144    2.7673 H         1 <1>         0.0635 
     41 H14        -4.5085   14.6108   -1.3047 H         1 <1>         0.0365 
     42 H15       -14.7724   21.6085    1.5125 H         1 <1>         0.0405 
     43 H16       -15.3116   22.8273    0.3228 H         1 <1>         0.0405 
     44 H17       -15.2544   21.1166   -0.1466 H         1 <1>         0.0405 
@<TRIPOS>BOND
     1    2    1 2    
     2    2    3 1    
     3    3    4 2    
     4    3    5 1    
     5    5    6 1    
     6    6    7 ar   
     7    7    8 ar   
     8    8    9 ar   
     9   10    9 ar   
    10   11   10 ar   
    11    6   11 ar   
    12   10   12 1    
    13   12   13 1    
    14   13   14 2    
    15   13   15 am   
    16   15   16 am   
    17   16   17 2    
    18   16   18 1    
    19   18   19 ar   
    20   19   20 ar   
    21   20   25 ar   
    22   23   21 ar   
    23    2   22 1    
    24   18   23 ar   
    25   24   26 2    
    26   22   24 1    
    27   21   25 ar   
    28    1   26 1    
    29   19   27 1    
    30    1   28 1    
    31    5   29 1    
    32    7   30 1    
    33    8   31 1    
    34    9   32 1    
    35   11   33 1    
    36   12   34 1    
    37   15   35 1    
    38   20   36 1    
    39   21   37 1    
    40   23   38 1    
    41   24   39 1    
    42   25   40 1    
    43   26   41 1    
    44   27   42 1    
    45   27   43 1    
    46   27   44 1    
@<TRIPOS>SUBSTRUCTURE
     1 ****        2 TEMP              0 ****  ****    0 ROOT 
@<TRIPOS>NORMAL
@<TRIPOS>FF_PBC
FORCE_FIELD_SETUP_FEATURE Force Field Setup information
v1.0  0 0.000000 0.000000 0.000000 0.000000 0.000000 0.000000 NONE 0 0 0 0 1 0 0 0 0 0 0 0 0
