#	Name:			PISM00782
#	Creating user name:	baoopengkun
#	Creation time:		Fri Nov 30 22:23:43 2018

#	Modifying user name:	baoopengkun
#	Modification time:	Fri Nov 30 22:24:09 2018

@<TRIPOS>MOLECULE
PISM00782
   27    28     1     2     0
SMALL
GAST_HUCK


@<TRIPOS>ATOM
      1 C1        -23.2117   20.4222  -18.7553 C.2       1 <1>         0.0795 
      2 C2        -21.9629   19.6166  -18.5240 C.3       1 <1>         0.0127 
      3 C3        -22.3106   18.3561  -17.6957 C.3       1 <1>        -0.0210 
      4 C4        -23.4544   17.5676  -18.3830 C.3       1 <1>         0.0254 
      5 C5        -24.6518   18.4535  -18.6193 C.2       1 <1>         0.1026 
      6 C6        -24.5398   19.7820  -18.7823 C.2       1 <1>        -0.0086 
      7 O7        -23.1187   21.6265  -18.9256 O.2       1 <1>        -0.4166 
      8 O8        -25.8170   17.7742  -18.6554 O.3       1 <1>        -0.2481 
      9 C9        -27.0291   18.5321  -18.8112 C.3       1 <1>         0.2446 
     10 O10       -27.2271   19.4061  -17.6793 O.3       1 <1>        -0.2297 
     11 C11       -28.3008   18.9410  -17.0541 C.2       1 <1>         0.2496 
     12 C12       -28.9356   17.7847  -17.6745 C.2       1 <1>         0.0293 
     13 C13       -28.1699   17.5461  -18.7371 C.2       1 <1>        -0.0002 
     14 C14       -30.1618   17.0384  -17.2244 C.3       1 <1>        -0.0323 
     15 O15       -28.7254   19.4544  -16.0334 O.2       1 <1>        -0.3691 
     16 H1        -21.2263   20.2250  -17.9742 H         1 <1>         0.0471 
     17 H2        -21.5341   19.3455  -19.5012 H         1 <1>         0.0471 
     18 H3        -22.6426   18.6673  -16.6903 H         1 <1>         0.0321 
     19 H4        -21.4184   17.7174  -17.5835 H         1 <1>         0.0321 
     20 H5        -23.7408   16.7230  -17.7349 H         1 <1>         0.0541 
     21 H6        -23.1226   17.1643  -19.3525 H         1 <1>         0.0541 
     22 H7        -25.3671   20.4687  -18.9491 H         1 <1>         0.0187 
     23 H8        -27.0836   19.0712  -19.7720 H         1 <1>         0.1219 
     24 H9        -28.3373   16.7436  -19.4545 H         1 <1>         0.0707 
     25 H10       -30.5575   17.4771  -16.2961 H         1 <1>         0.0347 
     26 H11       -29.9077   15.9839  -17.0405 H         1 <1>         0.0347 
     27 H12       -30.9366   17.0929  -18.0036 H         1 <1>         0.0347 
@<TRIPOS>BOND
     1    2    1 1    
     2    2    3 1    
     3    3    4 1    
     4    4    5 1    
     5    5    6 2    
     6    1    6 1    
     7    1    7 2    
     8    5    8 1    
     9    8    9 1    
    10    9   10 1    
    11   10   11 1    
    12   11   12 1    
    13   12   13 2    
    14    9   13 1    
    15   12   14 1    
    16   11   15 2    
    17    2   16 1    
    18    2   17 1    
    19    3   18 1    
    20    3   19 1    
    21    4   20 1    
    22    4   21 1    
    23    6   22 1    
    24    9   23 1    
    25   13   24 1    
    26   14   25 1    
    27   14   26 1    
    28   14   27 1    
@<TRIPOS>SUBSTRUCTURE
     1 ****        2 TEMP              0 ****  ****    0 ROOT 
@<TRIPOS>NORMAL
@<TRIPOS>FF_PBC
FORCE_FIELD_SETUP_FEATURE Force Field Setup information
v1.0  0 0.000000 0.000000 0.000000 0.000000 0.000000 0.000000 NONE 0 0 0 0 1 0 0 0 0 0 0 0 0
@<TRIPOS>RENDERING_ATTRS
ANTIALIASED_LINES 
*
