#	Name:			PISM00917
#	Creating user name:	baoopengkun
#	Creation time:		Fri Dec 14 10:31:16 2018

#	Modifying user name:	baoopengkun
#	Modification time:	Fri Dec 14 10:53:22 2018

@<TRIPOS>MOLECULE
PISM00917
   41    44     1     1     0
SMALL
GAST_HUCK


@<TRIPOS>ATOM
      1 C1         22.1947    9.5963   -8.7058 C.ar      1 <1>         0.0868 
      2 C2         22.8352    8.6273   -7.9217 C.ar      1 <1>        -0.0295 
      3 C3         24.1842    8.2995   -8.1267 C.ar      1 <1>        -0.0620 
      4 C4         24.9398    8.9407   -9.1162 C.ar      1 <1>        -0.0488 
      5 C5         24.3072    9.9390   -9.8557 C.ar      1 <1>         0.0636 
      6 C6         22.9794   10.2790   -9.6378 C.ar      1 <1>         0.0945 
      7 C7         22.7012   11.4265  -10.5772 C.2       1 <1>         0.2371 
      8 N8         23.7931   11.6784  -11.3228 N.am      1 <1>        -0.1423 
      9 C9         24.7850   10.8435  -10.9641 C.2       1 <1>         0.2414 
     10 O10        21.6407   12.0230  -10.6400 O.2       1 <1>        -0.3740 
     11 O11        25.9026   10.8061  -11.4486 O.2       1 <1>        -0.3670 
     12 C12        23.8800   12.6999  -12.3498 C.3       1 <1>         0.2213 
     13 O13        23.6458   13.9900  -11.7506 O.3       1 <1>        -0.2348 
     14 C14        22.5011   14.4140  -12.2734 C.2       1 <1>         0.2491 
     15 C15        21.8930   13.5249  -13.2572 C.2       1 <1>         0.0288 
     16 C16        22.7416   12.5008  -13.3208 C.2       1 <1>        -0.0059 
     17 C17        20.6182   13.7341  -14.0267 C.3       1 <1>        -0.0323 
     18 O18        22.0044   15.4821  -11.9592 O.2       1 <1>        -0.3691 
     19 N19        20.8717    9.8428   -8.5566 N.pl3     1 <1>        -0.2335 
     20 C20        20.0316    9.8577   -9.5576 C.2       1 <1>         0.2315 
     21 C21        20.4109    9.5466  -10.9924 C.ar      1 <1>         0.0559 
     22 O22        18.8612   10.1319   -9.3484 O.2       1 <1>        -0.3658 
     23 C23        19.8456   10.3059  -12.0233 C.ar      1 <1>        -0.0412 
     24 C24        20.2247   10.0942  -13.3518 C.ar      1 <1>        -0.0560 
     25 C25        21.1821    9.1234  -13.6573 C.ar      1 <1>        -0.0574 
     26 C26        21.7226    8.3358  -12.6374 C.ar      1 <1>        -0.0560 
     27 C27        21.3066    8.5200  -11.3157 C.ar      1 <1>        -0.0412 
     28 H1         22.2741    8.1154   -7.1462 H         1 <1>         0.0578 
     29 H2         24.6506    7.5361   -7.5107 H         1 <1>         0.0632 
     30 H3         25.9763    8.6798   -9.3036 H         1 <1>         0.0584 
     31 H4         24.8531   12.6960  -12.8686 H         1 <1>         0.1152 
     32 H5         22.6317   11.6330  -13.9687 H         1 <1>         0.0702 
     33 H6         20.4767   14.8062  -14.2292 H         1 <1>         0.0347 
     34 H7         19.7714   13.3677  -13.4278 H         1 <1>         0.0347 
     35 H8         20.6473   13.1910  -14.9833 H         1 <1>         0.0347 
     36 H9         20.5054   10.0289   -7.6105 H         1 <1>         0.2125 
     37 H10        19.1124   11.0718  -11.7901 H         1 <1>         0.0671 
     38 H11        19.7773   10.6842  -14.1456 H         1 <1>         0.0629 
     39 H12        21.5025    8.9790  -14.6848 H         1 <1>         0.0654 
     40 H13        22.4629    7.5770  -12.8731 H         1 <1>         0.0629 
     41 H14        21.6796    7.8517  -10.5471 H         1 <1>         0.0671 
@<TRIPOS>BOND
     1    2    1 ar   
     2    2    3 ar   
     3    3    4 ar   
     4    4    5 ar   
     5    6    5 ar   
     6    1    6 ar   
     7    6    7 1    
     8    7    8 am   
     9    9    8 am   
    10    5    9 1    
    11    7   10 2    
    12    9   11 2    
    13    8   12 1    
    14   12   13 1    
    15   13   14 1    
    16   15   14 1    
    17   16   15 2    
    18   12   16 1    
    19   15   17 1    
    20   14   18 2    
    21    1   19 1    
    22   19   20 1    
    23   20   21 1    
    24   20   22 2    
    25   21   23 ar   
    26   23   24 ar   
    27   24   25 ar   
    28   25   26 ar   
    29   26   27 ar   
    30   21   27 ar   
    31    2   28 1    
    32    3   29 1    
    33    4   30 1    
    34   12   31 1    
    35   16   32 1    
    36   17   33 1    
    37   17   34 1    
    38   17   35 1    
    39   19   36 1    
    40   23   37 1    
    41   24   38 1    
    42   25   39 1    
    43   26   40 1    
    44   27   41 1    
@<TRIPOS>SUBSTRUCTURE
     1 ****        2 TEMP              0 ****  ****    0 ROOT 
@<TRIPOS>NORMAL
@<TRIPOS>FF_PBC
FORCE_FIELD_SETUP_FEATURE Force Field Setup information
v1.0  0 0.000000 0.000000 0.000000 0.000000 0.000000 0.000000 NONE 0 0 0 0 1 0 0 0 0 0 0 0 0
