#	Name:			PISM00842.1
#	Creating user name:	baoopengkun
#	Creation time:		Thu Dec 13 14:40:19 2018

#	Modifying user name:	baoopengkun
#	Modification time:	Thu Dec 13 14:50:48 2018

@<TRIPOS>MOLECULE
PISM00842.1
   25    26     1     1     0
SMALL
GAST_HUCK


@<TRIPOS>ATOM
      1 C1         -3.4715   17.4213    1.5372 C.ar      1 <1>        -0.0205 
      2 C2         -3.6270   16.3887    0.6075 C.ar      1 <1>        -0.0352 
      3 C3         -4.8167   16.2762   -0.1187 C.ar      1 <1>         0.0840 
      4 C4         -5.8530   17.1911    0.0921 C.ar      1 <1>        -0.0352 
      5 C5         -5.6973   18.2217    1.0241 C.ar      1 <1>        -0.0205 
      6 C6         -4.5016   18.3439    1.7377 C.ar      1 <1>         0.1089 
      7 C7         -4.9751   15.2179   -1.0838 C.1       1 <1>         0.0889 
      8 O8         -4.3332   19.3821    2.6517 O.3       1 <1>        -0.2637 
      9 C9         -4.0453   20.6574    2.0594 C.3       1 <1>         0.2380 
     10 C10        -2.7231   20.6146    1.3290 C.2       1 <1>        -0.0015 
     11 C11        -1.8365   21.4124    1.9204 C.2       1 <1>         0.0292 
     12 C12        -2.5861   21.9928    3.0288 C.2       1 <1>         0.2495 
     13 O13        -3.8516   21.6051    3.1276 O.3       1 <1>        -0.2310 
     14 C14        -0.4040   21.6573    1.5322 C.3       1 <1>        -0.0323 
     15 O15        -2.0923   22.7869    3.8105 O.2       1 <1>        -0.3691 
     16 N16        -5.1022   14.3681   -1.8594 N.1       1 <1>        -0.3372 
     17 H1         -2.5518   17.5118    2.1061 H         1 <1>         0.0571 
     18 H2         -2.8244   15.6746    0.4496 H         1 <1>         0.0692 
     19 H3         -6.7792   17.1007   -0.4676 H         1 <1>         0.0692 
     20 H4         -6.5040   18.9265    1.1970 H         1 <1>         0.0571 
     21 H5         -4.8604   21.0067    1.4046 H         1 <1>         0.1204 
     22 H6         -2.5195   20.0119    0.4448 H         1 <1>         0.0705 
     23 H7          0.1554   20.7105    1.5636 H         1 <1>         0.0347 
     24 H8          0.0641   22.3715    2.2263 H         1 <1>         0.0347 
     25 H9         -0.3603   22.0692    0.5130 H         1 <1>         0.0347 
@<TRIPOS>BOND
     1    2    1 ar   
     2    2    3 ar   
     3    3    4 ar   
     4    4    5 ar   
     5    5    6 ar   
     6    1    6 ar   
     7    3    7 1    
     8    6    8 1    
     9    8    9 1    
    10    9   10 1    
    11   10   11 2    
    12   11   12 1    
    13   12   13 1    
    14    9   13 1    
    15   11   14 1    
    16   12   15 2    
    17    7   16 3    
    18    1   17 1    
    19    2   18 1    
    20    4   19 1    
    21    5   20 1    
    22    9   21 1    
    23   10   22 1    
    24   14   23 1    
    25   14   24 1    
    26   14   25 1    
@<TRIPOS>SUBSTRUCTURE
     1 ****        2 TEMP              0 ****  ****    0 ROOT 
@<TRIPOS>NORMAL
@<TRIPOS>FF_PBC
FORCE_FIELD_SETUP_FEATURE Force Field Setup information
v1.0  0 0.000000 0.000000 0.000000 0.000000 0.000000 0.000000 NONE 0 0 0 0 1 0 0 0 0 0 0 0 0
