#	Name:			PISM01085
#	Creating user name:	14062
#	Creation time:		Fri Jul 12 00:39:41 2019

#	Modifying user name:	14062
#	Modification time:	Fri Jul 12 00:43:17 2019

@<TRIPOS>MOLECULE
PISM01085
   64    65     1     2     0
SMALL
GAST_HUCK


@<TRIPOS>ATOM
      1 C1         -0.5848   -1.6980   -2.3885 C.ar      1 <1>        -0.0491 
      2 C2         -1.2781   -0.4957   -2.5864 C.ar      1 <1>        -0.0098 
      3 C3         -1.8178   -0.2071   -3.8505 C.ar      1 <1>         0.0843 
      4 C4         -1.7186   -1.1666   -4.8644 C.ar      1 <1>        -0.0261 
      5 C5         -1.0543   -2.3756   -4.6532 C.ar      1 <1>         0.1002 
      6 C6         -0.4694   -2.6451   -3.4122 C.ar      1 <1>         0.0983 
      7 O7          0.2086   -3.8569   -3.2187 O.3       1 <1>        -0.3359 
      8 C8          1.4550   -3.8658   -2.5021 C.3       1 <1>         0.0536 
      9 O9         -0.9806   -3.3068   -5.6919 O.3       1 <1>        -0.3327 
     10 C10         0.3053   -3.3820   -6.3279 C.3       1 <1>         0.0551 
     11 N11        -2.4340    0.9729   -4.1259 N.pl3     1 <1>        -0.0734 
     12 C12        -1.4415    0.4722   -1.4043 C.3       1 <1>         0.0988 
     13 O13        -0.5092    1.5533   -1.6170 O.3       1 <1>        -0.2665 
     14 C14        -0.5505    2.5455   -0.7134 C.2       1 <1>         0.2816 
     15 C15        -1.4441    2.5076    0.4582 C.2       1 <1>         0.0684 
     16 C16        -1.1253    1.9185    1.6219 C.2       1 <1>         0.0276 
     17 C17         0.1943    1.2561    1.7888 C.2       1 <1>        -0.0144 
     18 O18         0.1800    3.5087   -0.8635 O.2       1 <1>        -0.3435 
     19 C19        -2.1133    1.9303    2.7689 C.3       1 <1>        -0.0121 
     20 C20         0.6090    0.6179    2.8935 C.2       1 <1>        -0.0861 
     21 O21        -2.1548    2.1534   -3.4207 O.3       1 <1>        -0.2541 
     22 O22        -3.3795    1.0428   -5.1582 O.3       1 <1>        -0.2541 
     23 C23         1.9565   -0.0619    3.0560 C.3       1 <1>         0.0368 
     24 C24         2.9890    0.5337    2.1094 C.2       1 <1>        -0.0667 
     25 C25         3.1922    0.0083    0.8930 C.2       1 <1>         0.0132 
     26 C26         2.4279   -1.1544    0.4180 C.2       1 <1>         0.1466 
     27 C27         1.4749   -1.8700    1.3320 C.3       1 <1>         0.0184 
     28 C28         1.8395   -1.6051    2.8203 C.3       1 <1>        -0.0430 
     29 C29         3.7624    1.7433    2.5850 C.3       1 <1>        -0.0367 
     30 O30         2.5702   -1.5370   -0.7318 O.2       1 <1>        -0.3649 
     31 C31         3.1963   -2.3005    3.1594 C.3       1 <1>        -0.0711 
     32 C32         0.7380   -2.2385    3.7249 C.3       1 <1>        -0.0711 
     33 O33         2.3586    0.1080    4.4285 O.3       1 <1>        -0.4654 
     34 H1         -0.1381   -1.8988   -1.4242 H         1 <1>         0.0418 
     35 H2         -2.1536   -0.9825   -5.8405 H         1 <1>         0.0382 
     36 H3          1.9116   -4.8562   -2.6428 H         1 <1>         0.0567 
     37 H4          1.3113   -3.7141   -1.4236 H         1 <1>         0.0567 
     38 H5          2.1414   -3.1024   -2.8999 H         1 <1>         0.0567 
     39 H6          0.2457   -4.1295   -7.1324 H         1 <1>         0.0570 
     40 H7          1.0897   -3.6911   -5.6204 H         1 <1>         0.0570 
     41 H8          0.5752   -2.4094   -6.7678 H         1 <1>         0.0570 
     42 H9         -1.2327   -0.0428   -0.4533 H         1 <1>         0.0723 
     43 H10        -2.4905    0.8105   -1.3824 H         1 <1>         0.0723 
     44 H11        -2.3991    3.0085    0.3078 H         1 <1>         0.1013 
     45 H12         0.8777    1.2917    0.9432 H         1 <1>         0.1123 
     46 H13        -3.0445    2.4681    2.5337 H         1 <1>         0.0431 
     47 H14        -1.6571    2.4193    3.6428 H         1 <1>         0.0431 
     48 H15        -2.3810    0.8958    3.0323 H         1 <1>         0.0431 
     49 H16        -0.0424    0.5578    3.7636 H         1 <1>         0.0537 
     50 H17        -1.2223    2.3503   -3.4347 H         1 <1>         0.2506 
     51 H18        -3.3113    1.8731   -5.6158 H         1 <1>         0.2506 
     52 H19         3.9263    0.4250    0.2046 H         1 <1>         0.0970 
     53 H20         1.5135   -2.9504    1.1249 H         1 <1>         0.0475 
     54 H21         0.4597   -1.5156    1.1024 H         1 <1>         0.0475 
     55 H22         4.4056    1.4631    3.4326 H         1 <1>         0.0416 
     56 H23         3.0610    2.5291    2.9031 H         1 <1>         0.0416 
     57 H24         4.4060    2.1654    1.7986 H         1 <1>         0.0416 
     58 H25         3.4502   -2.1546    4.2202 H         1 <1>         0.0221 
     59 H26         4.0270   -1.9056    2.5575 H         1 <1>         0.0221 
     60 H27         3.1359   -3.3838    2.9746 H         1 <1>         0.0221 
     61 H28        -0.2638   -1.8591    3.4754 H         1 <1>         0.0221 
     62 H29         0.9369   -2.0202    4.7852 H         1 <1>         0.0221 
     63 H30         0.7178   -3.3317    3.5978 H         1 <1>         0.0221 
     64 H31         2.3574    1.0087    4.7327 H         1 <1>         0.1803 
@<TRIPOS>BOND
     1    2    1 ar   
     2    2    3 ar   
     3    3    4 ar   
     4    4    5 ar   
     5    5    6 ar   
     6    1    6 ar   
     7    6    7 1    
     8    7    8 1    
     9    5    9 1    
    10    9   10 1    
    11    3   11 1    
    12    2   12 1    
    13   12   13 1    
    14   13   14 1    
    15   14   15 1    
    16   15   16 2    
    17   16   17 1    
    18   14   18 2    
    19   16   19 1    
    20   17   20 2    
    21   11   21 1    
    22   11   22 1    
    23   20   23 1    
    24   23   24 1    
    25   24   25 2    
    26   25   26 1    
    27   26   27 1    
    28   27   28 1    
    29   23   28 1    
    30   24   29 1    
    31   26   30 2    
    32   28   31 1    
    33   28   32 1    
    34   23   33 1    
    35    1   34 1    
    36    4   35 1    
    37    8   36 1    
    38    8   37 1    
    39    8   38 1    
    40   10   39 1    
    41   10   40 1    
    42   10   41 1    
    43   12   42 1    
    44   12   43 1    
    45   15   44 1    
    46   17   45 1    
    47   19   46 1    
    48   19   47 1    
    49   19   48 1    
    50   20   49 1    
    51   21   50 1    
    52   22   51 1    
    53   25   52 1    
    54   27   53 1    
    55   27   54 1    
    56   29   55 1    
    57   29   56 1    
    58   29   57 1    
    59   31   58 1    
    60   31   59 1    
    61   31   60 1    
    62   32   61 1    
    63   32   62 1    
    64   32   63 1    
    65   33   64 1    
@<TRIPOS>SUBSTRUCTURE
     1 ****        2 TEMP              0 ****  ****    0 ROOT 
@<TRIPOS>NORMAL
@<TRIPOS>FF_PBC
FORCE_FIELD_SETUP_FEATURE Force Field Setup information
v1.0  0 0.000000 0.000000 0.000000 0.000000 0.000000 0.000000 NONE 0 0 0 0 1 0 0 0 0 0 0 0 0
@<TRIPOS>RENDERING_ATTRS
ANTIALIASED_LINES 
1,2,3,4,5,6,7,8,9,10,11,12,13,14,15,16,17,18,19,20,21,22,23,24,25,26,27,28,29,30,31,32,33
