#	Name:			PISM00203
#	Creating user name:	14062
#	Creation time:		Mon Apr 01 20:10:24 2019

#	Modifying user name:	14062
#	Modification time:	Mon Apr 01 20:18:18 2019

@<TRIPOS>MOLECULE
PISM00203
   57    58     1     2     0
SMALL
GAST_HUCK


@<TRIPOS>ATOM
      1 N1          0.3754    4.7555   -0.7312 N.pl3     1 <1>        -0.2900 
      2 C2         -0.6501    3.9036   -0.5367 C.ar      1 <1>         0.0574 
      3 C3         -1.8324    4.5197   -0.8974 C.ar      1 <1>        -0.0212 
      4 C4         -3.0657    3.8772   -0.8023 C.ar      1 <1>        -0.0420 
      5 C5         -3.0560    2.5635   -0.3171 C.ar      1 <1>         0.1139 
      6 C6         -1.8563    1.9333    0.0479 C.ar      1 <1>        -0.0424 
      7 C7         -1.3685    5.8829   -1.3436 C.2       1 <1>        -0.0245 
      8 C8         -0.0318    5.9078   -1.2014 C.2       1 <1>         0.0187 
      9 C9         -0.6247    2.5949   -0.0550 C.ar      1 <1>        -0.0447 
     10 C10        -2.2737    6.9762   -1.8514 C.3       1 <1>         0.0760 
     11 C11        -1.5830    8.3163   -1.6930 C.2       1 <1>         0.2394 
     12 O12        -1.2257    8.9730   -2.6555 O.2       1 <1>        -0.3687 
     13 O13        -1.3433    8.7859   -0.4637 O.3       1 <1>        -0.2917 
     14 C14        -2.6617    6.6571   -3.3228 C.3       1 <1>        -0.0278 
     15 C15        -5.5471    7.9949   -7.3528 C.3       1 <1>        -0.0328 
     16 C16        -6.7455    8.8488   -7.8436 C.3       1 <1>         0.0328 
     17 N17        -6.9049    8.6886   -9.2875 N.am      1 <1>        -0.2625 
     18 C18        -7.4679    7.5693   -9.7885 C.2       1 <1>         0.3200 
     19 O19        -7.8827    6.6581   -9.0931 O.2       1 <1>        -0.3775 
     20 O20        -7.5073    7.5947  -11.1280 O.3       1 <1>        -0.2581 
     21 C21        -8.0658    6.4386  -11.7942 C.3       1 <1>         0.0905 
     22 C22        -7.2245    5.1536  -11.5436 C.3       1 <1>        -0.0320 
     23 C23        -7.9628    6.8110  -13.3007 C.3       1 <1>        -0.0320 
     24 C24        -9.5654    6.2120  -11.4432 C.3       1 <1>        -0.0320 
     25 F25        -4.2048    1.9030   -0.2005 F         1 <1>        -0.1945 
     26 C26        -3.7999    7.5814   -3.8382 C.3       1 <1>        -0.0496 
     27 H1          1.3617    4.5251   -0.5354 H         1 <1>         0.2211 
     28 H2         -3.9879    4.3695   -1.0889 H         1 <1>         0.0516 
     29 C29        -4.1152    7.3098   -5.3349 C.3       1 <1>        -0.0527 
     30 H3         -1.8870    0.9133    0.4160 H         1 <1>         0.0526 
     31 C31        -5.2817    8.2043   -5.8367 C.3       1 <1>        -0.0512 
     32 H4          0.6129    6.7543   -1.4423 H         1 <1>         0.0802 
     33 H5          0.3070    2.1156    0.2251 H         1 <1>         0.0536 
     34 H6         -3.1848    6.9806   -1.2326 H         1 <1>         0.0634 
     35 H7         -1.6279    8.2178    0.2415 H         1 <1>         0.2540 
     36 H8         -3.0098    5.6127   -3.3906 H         1 <1>         0.0307 
     37 H9         -1.7685    6.7578   -3.9604 H         1 <1>         0.0307 
     38 H10        -5.7549    6.9304   -7.5480 H         1 <1>         0.0284 
     39 H11        -4.6511    8.2806   -7.9278 H         1 <1>         0.0284 
     40 H12        -6.5632    9.9094   -7.6000 H         1 <1>         0.0519 
     41 H13        -7.6667    8.5424   -7.3199 H         1 <1>         0.0519 
     42 H14        -6.5633    9.4022   -9.9018 H         1 <1>         0.1867 
     43 H15        -7.5615    4.3424  -12.2066 H         1 <1>         0.0260 
     44 H16        -7.3097    4.7949  -10.5087 H         1 <1>         0.0260 
     45 H17        -6.1631    5.3583  -11.7505 H         1 <1>         0.0260 
     46 H18        -6.9125    6.9954  -13.5751 H         1 <1>         0.0260 
     47 H19        -8.5362    7.7290  -13.5042 H         1 <1>         0.0260 
     48 H20        -8.3543    6.0062  -13.9417 H         1 <1>         0.0260 
     49 H21       -10.1182    7.1576  -11.5495 H         1 <1>         0.0260 
     50 H22        -9.7048    5.8447  -10.4173 H         1 <1>         0.0260 
     51 H23       -10.0075    5.4678  -12.1229 H         1 <1>         0.0260 
     52 H24        -3.5085    8.6373   -3.7238 H         1 <1>         0.0268 
     53 H25        -4.7073    7.4100   -3.2361 H         1 <1>         0.0268 
     54 H26        -4.3867    6.2497   -5.4684 H         1 <1>         0.0265 
     55 H27        -3.2136    7.5139   -5.9360 H         1 <1>         0.0265 
     56 H28        -6.1946    7.9624   -5.2677 H         1 <1>         0.0266 
     57 H29        -5.0330    9.2632   -5.6573 H         1 <1>         0.0266 
@<TRIPOS>BOND
     1    8    1 1    
     2    1    2 1    
     3    2    3 ar   
     4    7    3 1    
     5    3    4 ar   
     6    4    5 ar   
     7    5    6 ar   
     8    7    8 2    
     9    6    9 ar   
    10    2    9 ar   
    11    7   10 1    
    12   10   11 1    
    13   11   12 2    
    14   11   13 1    
    15   10   14 1    
    16   31   15 1    
    17   15   16 1    
    18   16   17 1    
    19   17   18 am   
    20   18   19 2    
    21   18   20 1    
    22   20   21 1    
    23   21   22 1    
    24   21   23 1    
    25   21   24 1    
    26    5   25 1    
    27   14   26 1    
    28    1   27 1    
    29    4   28 1    
    30   26   29 1    
    31    6   30 1    
    32   29   31 1    
    33    8   32 1    
    34    9   33 1    
    35   10   34 1    
    36   13   35 1    
    37   14   36 1    
    38   14   37 1    
    39   15   38 1    
    40   15   39 1    
    41   16   40 1    
    42   16   41 1    
    43   17   42 1    
    44   22   43 1    
    45   22   44 1    
    46   22   45 1    
    47   23   46 1    
    48   23   47 1    
    49   23   48 1    
    50   24   49 1    
    51   24   50 1    
    52   24   51 1    
    53   26   52 1    
    54   26   53 1    
    55   29   54 1    
    56   29   55 1    
    57   31   56 1    
    58   31   57 1    
@<TRIPOS>SUBSTRUCTURE
     1 ****        7 TEMP              0 ****  ****    0 ROOT 
@<TRIPOS>NORMAL
@<TRIPOS>FF_PBC
FORCE_FIELD_SETUP_FEATURE Force Field Setup information
v1.0  0 0.000000 0.000000 0.000000 0.000000 0.000000 0.000000 NONE 0 0 0 0 1 0 0 0 0 0 0 0 0
@<TRIPOS>RENDERING_ATTRS
ANTIALIASED_LINES 
1,2,3,4,5,6,7,8,9,10,11,12,13,14,15,16,17,18,19,20,21,22,23,24,25,26,29,31
