#	Name:			PISM01034.1
#	Creating user name:	malab
#	Creation time:		Tue Jul 02 17:12:55 2019

#	Modifying user name:	malab
#	Modification time:	Tue Jul 02 17:48:13 2019

@<TRIPOS>MOLECULE
PISM01034.1
   45    45     1     1     0
SMALL
GAST_HUCK


@<TRIPOS>ATOM
      1 N1         -7.5140    0.6371   -4.7913 N.pl3     1 <1>        -0.1726 
      2 C2         -7.7771   -0.6217   -4.9719 C.2       1 <1>         0.1282 
      3 N3         -6.7366   -1.3063   -4.8212 N.2       1 <1>        -0.2870 
      4 C4         -5.6187   -0.4604   -4.5067 C.2       1 <1>         0.0618 
      5 N5         -6.1806    0.6905   -4.5134 N.2       1 <1>        -0.1898 
      6 C6         -8.4222    1.7735   -4.8954 C.3       1 <1>         0.1128 
      7 C7         -8.7402    2.2235   -3.4287 C.3       1 <1>         0.0926 
      8 O8         -7.5483    2.3751   -2.6367 O.3       1 <1>        -0.3880 
      9 C9         -9.7471    3.4061   -3.1808 C.3       1 <1>        -0.0087 
     10 C10       -10.2731    3.2965   -1.7133 C.3       1 <1>        -0.0576 
     11 C11        -9.0905    4.8162   -3.3125 C.3       1 <1>        -0.0576 
     12 C12       -10.9773    3.3071   -4.1315 C.3       1 <1>        -0.0576 
     13 C13        -7.7623    2.8162   -5.8429 C.3       1 <1>        -0.0175 
     14 C14        -7.3270    2.1749   -7.1919 C.3       1 <1>        -0.0500 
     15 C15        -6.2775    2.5938   -9.4976 C.3       1 <1>        -0.0533 
     16 C16        -5.6854    3.6568  -10.4628 C.3       1 <1>        -0.0559 
     17 C17        -5.2154    3.0118  -11.7926 C.3       1 <1>        -0.0653 
     18 H1         -8.7479   -1.0490   -5.2201 H         1 <1>         0.1361 
     19 C19        -6.7346    3.2369   -8.1595 C.3       1 <1>        -0.0530 
     20 H2         -4.5792   -0.7229   -4.3156 H         1 <1>         0.0863 
     21 H3         -9.3508    1.4309   -5.3818 H         1 <1>         0.0705 
     22 H4         -9.2083    1.3241   -2.9941 H         1 <1>         0.0631 
     23 H5         -6.9510    3.0353   -2.9668 H         1 <1>         0.2099 
     24 H6        -10.8380    2.3641   -1.5594 H         1 <1>         0.0236 
     25 H7        -10.9425    4.1354   -1.4669 H         1 <1>         0.0236 
     26 H8         -9.4344    3.3094   -1.0000 H         1 <1>         0.0236 
     27 H9         -8.3143    4.9651   -2.5473 H         1 <1>         0.0236 
     28 H10        -9.8481    5.6017   -3.1672 H         1 <1>         0.0236 
     29 H11        -8.6327    4.9841   -4.2923 H         1 <1>         0.0236 
     30 H12       -10.6972    3.4967   -5.1766 H         1 <1>         0.0236 
     31 H13       -11.7412    4.0506   -3.8563 H         1 <1>         0.0236 
     32 H14       -11.4356    2.3083   -4.0668 H         1 <1>         0.0236 
     33 H15        -6.8809    3.2651   -5.3608 H         1 <1>         0.0297 
     34 H16        -8.4779    3.6114   -6.0917 H         1 <1>         0.0297 
     35 H17        -8.1978    1.6954   -7.6684 H         1 <1>         0.0266 
     36 H18        -6.5647    1.3997   -7.0132 H         1 <1>         0.0266 
     37 H19        -7.1386    2.1032   -9.9805 H         1 <1>         0.0265 
     38 H20        -5.5137    1.8259   -9.2912 H         1 <1>         0.0265 
     39 H21        -4.8269    4.1551   -9.9820 H         1 <1>         0.0263 
     40 H22        -6.4488    4.4217  -10.6831 H         1 <1>         0.0263 
     41 H23        -4.8005    3.7821  -12.4619 H         1 <1>         0.0230 
     42 H24        -6.0602    2.5230  -12.3024 H         1 <1>         0.0230 
     43 H25        -4.4352    2.2590  -11.5997 H         1 <1>         0.0230 
     44 H26        -5.8713    3.7253   -7.6779 H         1 <1>         0.0265 
     45 H27        -7.4944    4.0077   -8.3693 H         1 <1>         0.0265 
@<TRIPOS>BOND
     1    2    1 1    
     2    2    3 2    
     3    3    4 1    
     4    4    5 2    
     5    1    5 1    
     6    1    6 1    
     7    6    7 1    
     8    7    8 1    
     9    7    9 1    
    10    9   10 1    
    11    9   11 1    
    12    9   12 1    
    13    6   13 1    
    14   13   14 1    
    15   19   15 1    
    16   15   16 1    
    17   16   17 1    
    18    2   18 1    
    19    4   20 1    
    20   14   19 1    
    21    6   21 1    
    22    7   22 1    
    23    8   23 1    
    24   10   24 1    
    25   10   25 1    
    26   10   26 1    
    27   11   27 1    
    28   11   28 1    
    29   11   29 1    
    30   12   30 1    
    31   12   31 1    
    32   12   32 1    
    33   13   33 1    
    34   13   34 1    
    35   14   35 1    
    36   14   36 1    
    37   15   37 1    
    38   15   38 1    
    39   16   39 1    
    40   16   40 1    
    41   17   41 1    
    42   17   42 1    
    43   17   43 1    
    44   19   44 1    
    45   19   45 1    
@<TRIPOS>SUBSTRUCTURE
     1 ****        2 TEMP              0 ****  ****    0 ROOT 
@<TRIPOS>NORMAL
@<TRIPOS>FF_PBC
FORCE_FIELD_SETUP_FEATURE Force Field Setup information
v1.0  0 0.000000 0.000000 0.000000 0.000000 0.000000 0.000000 NONE 0 0 0 0 1 0 0 0 0 0 0 0 0
