#	Name:			PISM00788
#	Creating user name:	baoopengkun
#	Creation time:		Sat Dec 15 01:09:24 2018

#	Modifying user name:	baoopengkun
#	Modification time:	Sat Dec 15 01:19:30 2018

@<TRIPOS>MOLECULE
PISM00788
   56    60     1     1     0
SMALL
GAST_HUCK


@<TRIPOS>ATOM
      1 C1         12.0767    9.8488  -25.6179 C.ar      1 <1>        -0.0395 
      2 C2         10.9552    9.4190  -24.8894 C.ar      1 <1>        -0.0682 
      3 C3         11.0634    8.9990  -23.5566 C.ar      1 <1>        -0.0412 
      4 C4         12.3337    9.0185  -22.9800 C.ar      1 <1>         0.0661 
      5 C5         13.4356    9.4479  -23.7075 C.ar      1 <1>        -0.0102 
      6 C6         13.3486    9.8755  -25.0304 C.ar      1 <1>        -0.0648 
      7 C7         14.5470    9.2991  -22.7038 C.2       1 <1>        -0.0184 
      8 C8         13.9919    8.8303  -21.5917 C.2       1 <1>         0.1038 
      9 N9         12.7035    8.6588  -21.7273 N.pl3     1 <1>        -0.2676 
     10 C10        11.8080    8.1554  -20.6931 C.3       1 <1>         0.0369 
     11 C11        15.0281    8.6615  -20.5773 C.2       1 <1>         0.1397 
     12 O12        14.9098    8.2622  -19.4303 O.2       1 <1>        -0.4040 
     13 C13        16.2737    9.0858  -21.2438 C.2       1 <1>         0.0278 
     14 C14        16.0297    9.5394  -22.6725 C.3       1 <1>        -0.0036 
     15 C15        17.4797    9.0746  -20.6679 C.2       1 <1>         0.0829 
     16 O16        18.5451    9.4882  -21.3695 O.3       1 <1>        -0.2667 
     17 C17        19.7836    9.4338  -20.6396 C.3       1 <1>         0.2400 
     18 C18        19.7793   10.3384  -19.4298 C.2       1 <1>        -0.0007 
     19 C19        20.0454    9.6373  -18.3290 C.2       1 <1>         0.0293 
     20 C20        20.2067    8.2722  -18.8197 C.2       1 <1>         0.2496 
     21 O21        20.0428    8.1109  -20.1277 O.3       1 <1>        -0.2302 
     22 C22        20.1401   10.1260  -16.9094 C.3       1 <1>        -0.0323 
     23 O23        20.4690    7.3380  -18.0826 O.2       1 <1>        -0.3691 
     24 C24        11.9147   10.2788  -27.0288 C.ar      1 <1>        -0.0373 
     25 C25        11.2943   12.8690  -31.3482 C.3       1 <1>         0.0153 
     26 C26        11.3806   10.4497  -32.0648 C.3       1 <1>         0.0153 
     27 H1          9.9810    9.4079  -25.3679 H         1 <1>         0.0548 
     28 H2         10.1941    8.6713  -22.9976 H         1 <1>         0.0548 
     29 H3         14.2268   10.2115  -25.5706 H         1 <1>         0.0554 
     30 H4         12.3486    7.9245  -19.7625 H         1 <1>         0.0555 
     31 H5         11.3176    7.2364  -21.0481 H         1 <1>         0.0555 
     32 H6         11.0408    8.9127  -20.4721 H         1 <1>         0.0555 
     33 H7         16.5575    8.9116  -23.4059 H         1 <1>         0.0475 
     34 H8         16.2715   10.6026  -22.8198 H         1 <1>         0.0475 
     35 H9         17.5271    8.7192  -19.6357 H         1 <1>         0.1132 
     36 H10        20.6032    9.7282  -21.3148 H         1 <1>         0.1214 
     37 H11        19.5872   11.4102  -19.4615 H         1 <1>         0.0706 
     38 H12        19.4345   10.9530  -16.7388 H         1 <1>         0.0347 
     39 C39        12.6601    9.6670  -28.0405 C.ar      1 <1>        -0.0669 
     40 C40        12.5067   10.0726  -29.3696 C.ar      1 <1>        -0.0438 
     41 C41        11.5903   11.0757  -29.7068 C.ar      1 <1>         0.0403 
     42 C42        10.8447   11.6827  -28.6892 C.ar      1 <1>        -0.0438 
     43 C43        11.0148   11.2969  -27.3563 C.ar      1 <1>        -0.0669 
     44 N44        11.4270   11.4538  -31.0015 N.pl3     1 <1>        -0.3146 
     45 H13        21.1635   10.4780  -16.7120 H         1 <1>         0.0347 
     46 H14        19.9028    9.3071  -16.2136 H         1 <1>         0.0347 
     47 H15        11.7881   13.5152  -30.6052 H         1 <1>         0.0478 
     48 H16        10.2278   13.1345  -31.4050 H         1 <1>         0.0478 
     49 H17        11.7590   13.0683  -32.3262 H         1 <1>         0.0478 
     50 H18        11.0366    9.4742  -31.6860 H         1 <1>         0.0478 
     51 H19        12.3834   10.3330  -32.5030 H         1 <1>         0.0478 
     52 H20        10.6845   10.7648  -32.8575 H         1 <1>         0.0478 
     53 H21        13.3596    8.8742  -27.7947 H         1 <1>         0.0582 
     54 H22        13.1116    9.6039  -30.1381 H         1 <1>         0.0518 
     55 H23        10.1215   12.4550  -28.9270 H         1 <1>         0.0518 
     56 H24        10.4455   11.7895  -26.5742 H         1 <1>         0.0582 
@<TRIPOS>BOND
     1    2    1 ar   
     2    2    3 ar   
     3    3    4 ar   
     4    4    5 ar   
     5    5    6 ar   
     6    1    6 ar   
     7    5    7 1    
     8    7    8 2    
     9    8    9 1    
    10    4    9 1    
    11    9   10 1    
    12    8   11 1    
    13   11   12 2    
    14   11   13 1    
    15   13   14 1    
    16    7   14 1    
    17   13   15 2    
    18   15   16 1    
    19   16   17 1    
    20   17   18 1    
    21   18   19 2    
    22   19   20 1    
    23   20   21 1    
    24   17   21 1    
    25   19   22 1    
    26   20   23 2    
    27    1   24 1    
    28   44   25 1    
    29   44   26 1    
    30    2   27 1    
    31    3   28 1    
    32    6   29 1    
    33   10   30 1    
    34   10   31 1    
    35   10   32 1    
    36   14   33 1    
    37   14   34 1    
    38   15   35 1    
    39   17   36 1    
    40   18   37 1    
    41   22   38 1    
    42   24   39 ar   
    43   39   40 ar   
    44   40   41 ar   
    45   41   42 ar   
    46   42   43 ar   
    47   24   43 ar   
    48   41   44 1    
    49   22   45 1    
    50   22   46 1    
    51   25   47 1    
    52   25   48 1    
    53   25   49 1    
    54   26   50 1    
    55   26   51 1    
    56   26   52 1    
    57   39   53 1    
    58   40   54 1    
    59   42   55 1    
    60   43   56 1    
@<TRIPOS>SUBSTRUCTURE
     1 ****        2 TEMP              0 ****  ****    0 ROOT 
@<TRIPOS>NORMAL
@<TRIPOS>FF_PBC
FORCE_FIELD_SETUP_FEATURE Force Field Setup information
v1.0  0 0.000000 0.000000 0.000000 0.000000 0.000000 0.000000 NONE 0 0 0 0 1 0 0 0 0 0 0 0 0
