#	Name:			PISM00112
#	Creating user name:	baoopengkun
#	Creation time:		Fri Mar 08 11:59:16 2019

#	Modifying user name:	baoopengkun
#	Modification time:	Fri Mar 08 12:00:52 2019

@<TRIPOS>MOLECULE
PISM00112
   30    32     1     1     0
SMALL
GAST_HUCK


@<TRIPOS>ATOM
      1 C1         -3.0431    1.5423   -0.0669 C.ar      1 <1>        -0.0384 
      2 C2         -3.9426    0.5956   -0.5798 C.ar      1 <1>        -0.0756 
      3 C3         -3.5309   -0.6961   -0.9479 C.ar      1 <1>        -0.0777 
      4 C4         -2.1944   -1.0939   -0.8167 C.ar      1 <1>        -0.0643 
      5 C5         -1.3261   -0.1337   -0.3048 C.ar      1 <1>         0.0259 
      6 C6         -1.7090    1.1467    0.0660 C.ar      1 <1>         0.1028 
      7 N7         -0.5996    1.7961    0.5166 N.pl3     1 <1>        -0.1477 
      8 C8          0.3808    0.9267    0.4152 C.2       1 <1>         0.1415 
      9 N9         -0.0144   -0.1812   -0.0554 N.2       1 <1>        -0.3127 
     10 C10         1.8365    1.0777    0.7736 C.3       1 <1>         0.0216 
     11 C11        -0.5535    3.0277    0.9572 C.2       1 <1>         0.2693 
     12 O12        -1.5440    3.7336    1.0320 O.2       1 <1>        -0.3488 
     13 C13         0.7172    3.7041    1.4158 C.ar      1 <1>         0.0784 
     14 C14         1.5797    4.2780    0.4773 C.ar      1 <1>         0.0621 
     15 C15         2.7594    4.8962    0.9012 C.ar      1 <1>        -0.0416 
     16 C16         3.0727    4.9450    2.2629 C.ar      1 <1>        -0.0430 
     17 C17         2.2035    4.3821    3.2016 C.ar      1 <1>         0.0463 
     18 C18         1.0215    3.7684    2.7786 C.ar      1 <1>        -0.0262 
     19 Cl19        1.1856    4.2209   -1.2289 Cl        1 <1>        -0.0642 
     20 H20         3.9905    5.4205    2.5938 H         1 <1>         0.0659 
     21 H1         -3.3917    2.5303    0.2062 H         1 <1>         0.0550 
     22 H2         -4.9870    0.8698   -0.6955 H         1 <1>         0.0531 
     23 H3         -4.2587   -1.3994   -1.3408 H         1 <1>         0.0521 
     24 H4         -1.8493   -2.0841   -1.0933 H         1 <1>         0.0539 
     25 H5          2.3405    0.1054    0.6658 H         1 <1>         0.0501 
     26 H6          1.9539    1.3999    1.8171 H         1 <1>         0.0501 
     27 H7          2.3297    1.7871    0.0962 H         1 <1>         0.0501 
     28 H8          3.4307    5.3379    0.1715 H         1 <1>         0.0635 
     29 Cl29        2.5952    4.4446    4.9075 Cl        1 <1>        -0.0693 
     30 H10         0.3412    3.3410    3.5080 H         1 <1>         0.0678 
@<TRIPOS>BOND
     1    2    1 ar   
     2    2    3 ar   
     3    3    4 ar   
     4    4    5 ar   
     5    5    6 ar   
     6    1    6 ar   
     7    6    7 1    
     8    7    8 1    
     9    8    9 2    
    10    5    9 1    
    11    8   10 1    
    12    7   11 1    
    13   11   12 2    
    14   11   13 1    
    15   13   14 ar   
    16   14   15 ar   
    17   15   16 ar   
    18   16   17 ar   
    19   17   18 ar   
    20   13   18 ar   
    21   14   19 1    
    22   16   20 1    
    23    1   21 1    
    24    2   22 1    
    25    3   23 1    
    26    4   24 1    
    27   10   25 1    
    28   10   26 1    
    29   10   27 1    
    30   15   28 1    
    31   17   29 1    
    32   18   30 1    
@<TRIPOS>SUBSTRUCTURE
     1 ****        2 TEMP              0 ****  ****    0 ROOT 
@<TRIPOS>NORMAL
@<TRIPOS>FF_PBC
FORCE_FIELD_SETUP_FEATURE Force Field Setup information
v1.0  0 0.000000 0.000000 0.000000 0.000000 0.000000 0.000000 NONE 0 0 0 0 1 0 0 0 0 0 0 0 0
