#	Name:			PISM00911
#	Creating user name:	baoopengkun
#	Creation time:		Fri Dec 14 10:31:16 2018

#	Modifying user name:	baoopengkun
#	Modification time:	Fri Dec 14 10:42:32 2018

@<TRIPOS>MOLECULE
PISM00911
   33    36     1     1     0
SMALL
GAST_HUCK


@<TRIPOS>ATOM
      1 C1         21.3406   12.7529   -6.8130 C.ar      1 <1>        -0.0300 
      2 C2         21.1271   13.2540   -5.5198 C.ar      1 <1>        -0.0083 
      3 C3         21.5197   14.5622   -5.1799 C.ar      1 <1>        -0.0083 
      4 C4         22.1279   15.3989   -6.1282 C.ar      1 <1>        -0.0300 
      5 C5         22.3299   14.8863   -7.4083 C.ar      1 <1>         0.0724 
      6 C6         21.9480   13.5962   -7.7410 C.ar      1 <1>         0.0724 
      7 C7         22.3324   13.4176   -9.1886 C.2       1 <1>         0.2424 
      8 N8         22.9005   14.5494   -9.6484 N.am      1 <1>        -0.1406 
      9 C9         22.9343   15.4664   -8.6629 C.2       1 <1>         0.2424 
     10 O10        22.1479   12.3912   -9.8196 O.2       1 <1>        -0.3691 
     11 O11        23.3814   16.5970   -8.7485 O.2       1 <1>        -0.3691 
     12 C12        23.3616   14.7623  -11.0089 C.3       1 <1>         0.2217 
     13 O13        22.2104   14.8658  -11.8703 O.3       1 <1>        -0.2347 
     14 C14        22.2947   13.8267  -12.6926 C.2       1 <1>         0.2491 
     15 C15        23.4618   12.9715  -12.5057 C.2       1 <1>         0.0288 
     16 C16        24.1140   13.5476  -11.4978 C.2       1 <1>        -0.0058 
     17 C17        23.8444   11.7387  -13.2774 C.3       1 <1>        -0.0323 
     18 O18        21.4544   13.6141  -13.5498 O.2       1 <1>        -0.3691 
     19 C19        21.2999   15.0323   -3.8793 C.ar      1 <1>        -0.0356 
     20 C20        20.6948   14.2161   -2.9204 C.ar      1 <1>         0.0581 
     21 C21        20.3014   12.9190   -3.2593 C.ar      1 <1>         0.0581 
     22 C22        20.5160   12.4436   -4.5552 C.ar      1 <1>        -0.0356 
     23 H1         21.0506   11.7476   -7.1011 H         1 <1>         0.0702 
     24 H2         22.4375   16.4122   -5.8940 H         1 <1>         0.0702 
     25 H3         23.9823   15.6692  -11.1014 H         1 <1>         0.1153 
     26 H4         25.0520   13.1900  -11.0755 H         1 <1>         0.0702 
     27 H5         23.5965   10.8469  -12.6829 H         1 <1>         0.0347 
     28 H6         24.9240   11.7430  -13.4899 H         1 <1>         0.0347 
     29 H7         23.2934   11.6996  -14.2290 H         1 <1>         0.0347 
     30 H8         21.5973   16.0378   -3.5990 H         1 <1>         0.0646 
     31 Cl31       20.4338   14.8262   -1.2985 Cl        1 <1>        -0.0680 
     32 Cl32       19.5399   11.8836   -2.0680 Cl        1 <1>        -0.0680 
     33 H11        20.2008   11.4347   -4.8021 H         1 <1>         0.0646 
@<TRIPOS>BOND
     1    2    1 ar   
     2    2    3 ar   
     3    3    4 ar   
     4    4    5 ar   
     5    5    6 ar   
     6    1    6 ar   
     7    6    7 1    
     8    7    8 am   
     9    8    9 am   
    10    5    9 1    
    11    7   10 2    
    12    9   11 2    
    13    8   12 1    
    14   12   13 1    
    15   13   14 1    
    16   14   15 1    
    17   15   16 2    
    18   12   16 1    
    19   15   17 1    
    20   14   18 2    
    21    3   19 ar   
    22   19   20 ar   
    23   20   21 ar   
    24   21   22 ar   
    25    2   22 ar   
    26    1   23 1    
    27    4   24 1    
    28   12   25 1    
    29   16   26 1    
    30   17   27 1    
    31   17   28 1    
    32   17   29 1    
    33   19   30 1    
    34   20   31 1    
    35   21   32 1    
    36   22   33 1    
@<TRIPOS>SUBSTRUCTURE
     1 ****        2 TEMP              0 ****  ****    0 ROOT 
@<TRIPOS>NORMAL
@<TRIPOS>FF_PBC
FORCE_FIELD_SETUP_FEATURE Force Field Setup information
v1.0  0 0.000000 0.000000 0.000000 0.000000 0.000000 0.000000 NONE 0 0 0 0 1 0 0 0 0 0 0 0 0
