#	Name:			PISM00268
#	Creating user name:	root
#	Creation time:		Wed Jun 26 13:46:59 2019

#	Modifying user name:	root
#	Modification time:	Wed Jun 26 13:47:26 2019

@<TRIPOS>MOLECULE
PISM00268
   24    25     1     1     0
SMALL
GAST_HUCK


@<TRIPOS>ATOM
      1 H1          0.8834   -4.6365   -0.2361 H         1 <1>         0.0444 
      2 H2          2.2985   -3.5444   -0.3537 H         1 <1>         0.0444 
      3 C3          1.2468   -3.6820   -0.6452 C.3       1 <1>         0.0040 
      4 H3          1.1799   -3.7138   -1.7428 H         1 <1>         0.0444 
      5 H4         -1.0505   -3.4711    1.1732 H         1 <1>         0.0277 
      6 H5         -1.8012   -0.7846    1.4416 H         1 <1>         0.0375 
      7 C7          0.4332   -2.5260   -0.1335 C.2       1 <1>         0.1016 
      8 C8         -0.6018   -2.5959    0.7051 C.2       1 <1>        -0.0577 
      9 C9         -0.9899   -1.1942    0.8411 C.2       1 <1>        -0.0638 
     10 C10        -0.1198   -0.5502    0.0585 C.2       1 <1>         0.1054 
     11 O11         0.7827   -1.3117   -0.5624 O.3       1 <1>        -0.2571 
     12 C12        -0.1254    0.9155   -0.1173 C.2       1 <1>        -0.0115 
     13 C13         0.4748    1.6430   -1.0701 C.2       1 <1>         0.1090 
     14 C14         1.2819    1.2340   -2.2313 C.2       1 <1>         0.2428 
     15 N15         1.7395    2.2900   -2.9338 N.am      1 <1>        -0.1916 
     16 C16         1.3810    3.5144   -2.4912 C.2       1 <1>         0.1592 
     17 S17         0.3474    3.4156   -1.0404 S.3       1 <1>         0.0142 
     18 O18         1.5049    0.0741   -2.5312 O.2       1 <1>        -0.3791 
     19 S19         1.8428    4.9942   -3.2141 S.2       1 <1>        -0.2537 
     20 H6         -0.6939    1.4684    0.6307 H         1 <1>         0.0587 
     21 C21         2.5767    2.1313   -4.1223 C.3       1 <1>         0.0520 
     22 H7          2.7845    1.0764   -4.3594 H         1 <1>         0.0564 
     23 H8          3.5407    2.6399   -3.9676 H         1 <1>         0.0564 
     24 H9          2.0755    2.5823   -4.9926 H         1 <1>         0.0564 
@<TRIPOS>BOND
     1    3    1 1    
     2    3    2 1    
     3    3    4 1    
     4    8    5 1    
     5    9    6 1    
     6   12   20 1    
     7    7    3 1    
     8    7    8 2    
     9    9    8 1    
    10   10    9 2    
    11   10   11 1    
    12   11    7 1    
    13   10   12 1    
    14   12   13 2    
    15   13   14 1    
    16   14   15 am   
    17   15   16 am   
    18   16   17 1    
    19   13   17 1    
    20   14   18 2    
    21   16   19 2    
    22   15   21 1    
    23   21   22 1    
    24   21   23 1    
    25   21   24 1    
@<TRIPOS>SUBSTRUCTURE
     1 ****        3 TEMP              0 ****  ****    0 ROOT 
@<TRIPOS>NORMAL
@<TRIPOS>FF_PBC
FORCE_FIELD_SETUP_FEATURE Force Field Setup information
v1.0  0 0.000000 0.000000 0.000000 0.000000 0.000000 0.000000 NONE 0 0 0 0 1 0 0 0 0 0 0 0 0
