#	Name:			PISM00813
#	Creating user name:	baoopengkun
#	Creation time:		Fri Nov 30 17:12:51 2018

#	Modifying user name:	baoopengkun
#	Modification time:	Fri Nov 30 17:15:14 2018

@<TRIPOS>MOLECULE
PISM00813
   32    34     1     2     0
SMALL
GAST_HUCK


@<TRIPOS>ATOM
      1 C1         -3.6009   -3.0428   -1.8714 C.ar      1 <1>        -0.0136 
      2 C2         -3.8522   -3.8090   -3.0144 C.ar      1 <1>        -0.0643 
      3 C3         -2.8719   -3.9203   -4.0041 C.ar      1 <1>        -0.0753 
      4 C4         -1.6547   -3.2489   -3.8585 C.ar      1 <1>        -0.0758 
      5 C5         -1.4198   -2.4552   -2.7317 C.ar      1 <1>        -0.0703 
      6 C6         -2.3854   -2.3728   -1.7210 C.ar      1 <1>        -0.0227 
      7 C7         -4.6210   -2.9105   -0.7387 C.3       1 <1>         0.1069 
      8 O8         -4.6790   -1.5911   -0.1614 O.3       1 <1>        -0.2706 
      9 C9         -3.4858   -1.0611    0.1467 C.2       1 <1>         0.2412 
     10 C10        -2.2320   -1.5764   -0.4428 C.2       1 <1>         0.0799 
     11 O11        -3.4471   -0.1197    0.9211 O.2       1 <1>        -0.3766 
     12 C12        -1.0522   -1.3318    0.1448 C.2       1 <1>         0.1027 
     13 O13         0.0777   -1.8398   -0.3675 O.3       1 <1>        -0.2519 
     14 C14         1.2580   -1.4968    0.3767 C.3       1 <1>         0.2450 
     15 C15         2.4518   -1.9931   -0.4012 C.2       1 <1>         0.0003 
     16 C16         3.2090   -0.9712   -0.7963 C.2       1 <1>         0.0294 
     17 C17         2.5145    0.1944   -0.2631 C.2       1 <1>         0.2496 
     18 O18         1.4101   -0.0635    0.4260 O.3       1 <1>        -0.2294 
     19 C19         4.4842   -0.9935   -1.5939 C.3       1 <1>        -0.0323 
     20 O20         2.9203    1.3313   -0.4308 O.2       1 <1>        -0.3691 
     21 H1         -4.8014   -4.3207   -3.1365 H         1 <1>         0.0537 
     22 H2         -3.0558   -4.5268   -4.8859 H         1 <1>         0.0542 
     23 H3         -0.8915   -3.3409   -4.6254 H         1 <1>         0.0543 
     24 H4         -0.4910   -1.9006   -2.6682 H         1 <1>         0.0535 
     25 H5         -4.3446   -3.6354    0.0435 H         1 <1>         0.0768 
     26 H6         -5.6340   -3.1556   -1.0920 H         1 <1>         0.0768 
     27 H7         -1.0511   -0.7206    1.0518 H         1 <1>         0.1302 
     28 H8          1.2532   -1.9256    1.3933 H         1 <1>         0.1225 
     29 H9          2.6541   -3.0427   -0.6111 H         1 <1>         0.0707 
     30 H10         4.8596   -2.0213   -1.7108 H         1 <1>         0.0347 
     31 H11         5.2477   -0.3904   -1.0805 H         1 <1>         0.0347 
     32 H12         4.2980   -0.5634   -2.5891 H         1 <1>         0.0347 
@<TRIPOS>BOND
     1    2    1 ar   
     2    2    3 ar   
     3    3    4 ar   
     4    4    5 ar   
     5    5    6 ar   
     6    1    6 ar   
     7    1    7 1    
     8    7    8 1    
     9    8    9 1    
    10    9   10 1    
    11    6   10 1    
    12    9   11 2    
    13   10   12 2    
    14   12   13 1    
    15   13   14 1    
    16   14   15 1    
    17   15   16 2    
    18   16   17 1    
    19   17   18 1    
    20   14   18 1    
    21   16   19 1    
    22   17   20 2    
    23    2   21 1    
    24    3   22 1    
    25    4   23 1    
    26    5   24 1    
    27    7   25 1    
    28    7   26 1    
    29   12   27 1    
    30   14   28 1    
    31   15   29 1    
    32   19   30 1    
    33   19   31 1    
    34   19   32 1    
@<TRIPOS>SUBSTRUCTURE
     1 ****        2 TEMP              0 ****  ****    0 ROOT 
@<TRIPOS>NORMAL
@<TRIPOS>FF_PBC
FORCE_FIELD_SETUP_FEATURE Force Field Setup information
v1.0  0 0.000000 0.000000 0.000000 0.000000 0.000000 0.000000 NONE 0 0 0 0 1 0 0 0 0 0 0 0 0
@<TRIPOS>RENDERING_ATTRS
ANTIALIASED_LINES 
*
