#	Name:			PISM00940
#	Creating user name:	baoopengkun
#	Creation time:		Wed Dec 12 22:41:34 2018

#	Modifying user name:	baoopengkun
#	Modification time:	Wed Dec 12 23:12:06 2018

@<TRIPOS>MOLECULE
PISM00940
   20    20     1     1     0
SMALL
GAST_HUCK


@<TRIPOS>ATOM
      1 C1          4.1762   -4.8614    5.0025 C.3       1 <1>        -0.0415 
      2 C2          3.2964   -5.8251    5.7514 C.2       1 <1>         0.0198 
      3 C3          3.6401   -6.7706    6.6245 C.2       1 <1>        -0.0048 
      4 C4          2.4312   -7.5066    7.1557 C.3       1 <1>         0.1493 
      5 O5          1.3196   -6.9132    6.4536 O.3       1 <1>        -0.2517 
      6 C6          1.8437   -5.9580    5.6906 C.2       1 <1>         0.2326 
      7 C7          5.0205   -7.1516    7.0970 C.3       1 <1>        -0.0234 
      8 H1          4.8999   -5.4161    4.3871 H         1 <1>         0.0306 
      9 O9          1.1490   -5.2478    4.9840 O.2       1 <1>        -0.3815 
     10 C10         2.2065   -7.3203    8.6367 C.2       1 <1>        -0.0425 
     11 C11         2.6048   -6.2379    9.3172 C.2       1 <1>        -0.1117 
     12 H2          4.7188   -4.2228    5.7153 H         1 <1>         0.0306 
     13 H3          3.5674   -4.2226    4.3453 H         1 <1>         0.0306 
     14 H4          2.5081   -8.5750    6.8972 H         1 <1>         0.1024 
     15 H5          5.2275   -8.1950    6.8166 H         1 <1>         0.0428 
     16 H6          5.0907   -7.0584    8.1906 H         1 <1>         0.0428 
     17 H7          5.7888   -6.5087    6.6430 H         1 <1>         0.0428 
     18 H8          1.6779   -8.1104    9.1725 H         1 <1>         0.0721 
     19 H9          3.1204   -5.4076    8.8359 H         1 <1>         0.0304 
     20 H10         2.4138   -6.1584   10.3877 H         1 <1>         0.0304 
@<TRIPOS>BOND
     1    2    1 1    
     2    2    3 2    
     3    3    4 1    
     4    4    5 1    
     5    5    6 1    
     6    2    6 1    
     7    3    7 1    
     8    1    8 1    
     9    6    9 2    
    10    4   10 1    
    11   10   11 2    
    12    1   12 1    
    13    1   13 1    
    14    4   14 1    
    15    7   15 1    
    16    7   16 1    
    17    7   17 1    
    18   10   18 1    
    19   11   19 1    
    20   11   20 1    
@<TRIPOS>SUBSTRUCTURE
     1 ****        2 TEMP              0 ****  ****    0 ROOT 
@<TRIPOS>NORMAL
@<TRIPOS>FF_PBC
FORCE_FIELD_SETUP_FEATURE Force Field Setup information
v1.0  0 0.000000 0.000000 0.000000 0.000000 0.000000 0.000000 NONE 0 0 0 0 1 0 0 0 0 0 0 0 0
