#	Name:			PISM00509
#	Creating user name:	baoopengkun
#	Creation time:		Mon Dec 17 15:50:31 2018

#	Modifying user name:	baoopengkun
#	Modification time:	Mon Dec 17 15:51:28 2018

@<TRIPOS>MOLECULE
PISM00509
   23    22     1     1     0
SMALL
GAST_HUCK


@<TRIPOS>ATOM
      1 O1         27.5977   -3.3630   11.5588 O.2       1 <1>        -0.3704 
      2 C2         28.4516   -3.1926   10.7041 C.2       1 <1>         0.2335 
      3 O3         28.5059   -3.9305    9.5960 O.3       1 <1>        -0.2926 
      4 C4         29.5139   -2.1353   10.8358 C.3       1 <1>         0.0654 
      5 C5         30.9173   -2.7887   10.8830 C.3       1 <1>         0.0566 
      6 C6         31.9782   -1.7256   11.0182 C.2       1 <1>         0.1929 
      7 O7         32.5201   -1.5668   12.0984 O.2       1 <1>        -0.3955 
      8 N8         32.3054   -0.9655    9.9541 N.am      1 <1>        -0.2172 
      9 N9         34.1053    0.8514   10.2288 N.3       1 <1>        -0.2135 
     10 C10        35.1608    0.6441    9.2199 C.3       1 <1>         0.0093 
     11 C11        34.5739    0.8413   11.6272 C.3       1 <1>         0.0093 
     12 H1         27.8054   -4.5741    9.5822 H         1 <1>         0.2539 
     13 H2         29.3429   -1.5559   11.7575 H         1 <1>         0.0543 
     14 H3         29.4302   -1.4527    9.9763 H         1 <1>         0.0543 
     15 H4         31.1056   -3.3715    9.9678 H         1 <1>         0.0529 
     16 H5         30.9742   -3.4760   11.7429 H         1 <1>         0.0529 
     17 H6         31.8707   -1.0925    9.0633 H         1 <1>         0.2070 
     18 H7         35.6341   -0.3403    9.3557 H         1 <1>         0.0411 
     19 H8         35.9255    1.4328    9.2883 H         1 <1>         0.0411 
     20 H9         34.6990    0.6816    8.2225 H         1 <1>         0.0411 
     21 H10        35.0127   -0.1369   11.8772 H         1 <1>         0.0411 
     22 H11        33.7080    1.0163   12.2826 H         1 <1>         0.0411 
     23 H12        35.3177    1.6340   11.7985 H         1 <1>         0.0411 
@<TRIPOS>BOND
     1    2    1 2    
     2    2    3 1    
     3    2    4 1    
     4    4    5 1    
     5    5    6 1    
     6    6    7 2    
     7    6    8 am   
     8    8    9 1    
     9    9   10 1    
    10    9   11 1    
    11    3   12 1    
    12    4   13 1    
    13    4   14 1    
    14    5   15 1    
    15    5   16 1    
    16    8   17 1    
    17   10   18 1    
    18   10   19 1    
    19   10   20 1    
    20   11   21 1    
    21   11   22 1    
    22   11   23 1    
@<TRIPOS>SUBSTRUCTURE
     1 ****        2 TEMP              0 ****  ****    0 ROOT 
@<TRIPOS>NORMAL
@<TRIPOS>FF_PBC
FORCE_FIELD_SETUP_FEATURE Force Field Setup information
v1.0  0 0.000000 0.000000 0.000000 0.000000 0.000000 0.000000 NONE 0 0 0 0 1 0 0 0 0 0 0 0 0
