#	Name:			PISM00959.1
#	Creating user name:	baoopengkun
#	Creation time:		Thu Dec 13 10:35:31 2018

#	Modifying user name:	baoopengkun
#	Modification time:	Thu Dec 13 10:47:38 2018

@<TRIPOS>MOLECULE
PISM00959.1
   41    43     1     1     0
SMALL
GAST_HUCK


@<TRIPOS>ATOM
      1 C1         -9.7216    8.2727   -5.8983 C.ar      1 <1>        -0.0181 
      2 C2        -10.1567    9.5361   -5.4933 C.ar      1 <1>         0.0714 
      3 C3        -11.4567    9.6945   -5.0092 C.ar      1 <1>        -0.0181 
      4 C4        -12.3206    8.5970   -4.9487 C.ar      1 <1>        -0.0371 
      5 C5        -11.9136    7.3353   -5.4033 C.ar      1 <1>        -0.0202 
      6 C6        -10.5898    7.1787   -5.8370 C.ar      1 <1>        -0.0371 
      7 C7        -12.9061    6.1487   -5.4110 C.3       1 <1>         0.0865 
      8 O8        -14.2612    6.6132   -5.2587 O.3       1 <1>        -0.4211 
      9 C9        -12.8168    5.2789   -6.7041 C.3       1 <1>        -0.0358 
     10 C10       -12.5995    5.2805   -4.1592 C.3       1 <1>         0.0820 
     11 N11       -13.4392    4.0919   -4.0942 N.pl3     1 <1>        -0.1838 
     12 N12       -14.6655    3.9962   -3.5075 N.2       1 <1>        -0.1909 
     13 C13       -15.1616    2.8164   -3.5627 C.2       1 <1>         0.0618 
     14 N14       -14.1119    2.1153   -4.2490 N.2       1 <1>        -0.2870 
     15 C15       -13.1648    2.8943   -4.5147 C.2       1 <1>         0.1269 
     16 C16       -12.8910    6.0889   -8.0277 C.3       1 <1>        -0.0239 
     17 C17       -12.6365    5.1408   -9.2083 C.ar      1 <1>        -0.0434 
     18 C18       -11.3495    5.0009   -9.7409 C.ar      1 <1>        -0.0597 
     19 C19       -11.1226    4.1451  -10.8227 C.ar      1 <1>        -0.0546 
     20 C20       -12.1809    3.4181  -11.3736 C.ar      1 <1>         0.0330 
     21 C21       -13.4656    3.5468  -10.8394 C.ar      1 <1>        -0.0546 
     22 C22       -13.6917    4.4045   -9.7590 C.ar      1 <1>        -0.0597 
     23 Cl23      -11.8976    2.3473  -12.7309 Cl        1 <1>        -0.0771 
     24 Cl24       -9.0775   10.9128   -5.5896 Cl        1 <1>        -0.0420 
     25 H1         -8.7064    8.1436   -6.2601 H         1 <1>         0.0703 
     26 H2        -11.7932   10.6722   -4.6789 H         1 <1>         0.0703 
     27 H3        -13.3138    8.7417   -4.5366 H         1 <1>         0.0848 
     28 H4        -10.2127    6.2064   -6.1311 H         1 <1>         0.0848 
     29 H5        -14.5674    7.1570   -5.9750 H         1 <1>         0.1959 
     30 H6        -13.6511    4.5589   -6.7000 H         1 <1>         0.0218 
     31 H7        -11.8850    4.6938   -6.7040 H         1 <1>         0.0218 
     32 H8        -12.7945    5.8802   -3.2568 H         1 <1>         0.0570 
     33 H9        -11.5402    4.9804   -4.1467 H         1 <1>         0.0570 
     34 H10       -16.1159    2.4481   -3.1893 H         1 <1>         0.0863 
     35 H11       -12.2528    2.5860   -5.0240 H         1 <1>         0.1361 
     36 H12       -12.1429    6.8953   -8.0432 H         1 <1>         0.0420 
     37 H13       -13.8793    6.5557   -8.1554 H         1 <1>         0.0420 
     38 H14       -10.5186    5.5550   -9.3160 H         1 <1>         0.0557 
     39 H15       -10.1247    4.0432  -11.2368 H         1 <1>         0.0606 
     40 H16       -14.2866    2.9791  -11.2651 H         1 <1>         0.0606 
     41 H17       -14.6920    4.4949   -9.3475 H         1 <1>         0.0557 
@<TRIPOS>BOND
     1    2    1 ar   
     2    2    3 ar   
     3    3    4 ar   
     4    4    5 ar   
     5    5    6 ar   
     6    1    6 ar   
     7    5    7 1    
     8    7    8 1    
     9    7    9 1    
    10    7   10 1    
    11   10   11 1    
    12   11   12 1    
    13   12   13 2    
    14   13   14 1    
    15   14   15 2    
    16   11   15 1    
    17    9   16 1    
    18   16   17 1    
    19   17   18 ar   
    20   18   19 ar   
    21   19   20 ar   
    22   20   21 ar   
    23   21   22 ar   
    24   17   22 ar   
    25   20   23 1    
    26    2   24 1    
    27    1   25 1    
    28    3   26 1    
    29    4   27 1    
    30    6   28 1    
    31    8   29 1    
    32    9   30 1    
    33    9   31 1    
    34   10   32 1    
    35   10   33 1    
    36   13   34 1    
    37   15   35 1    
    38   16   36 1    
    39   16   37 1    
    40   18   38 1    
    41   19   39 1    
    42   21   40 1    
    43   22   41 1    
@<TRIPOS>SUBSTRUCTURE
     1 ****        2 TEMP              0 ****  ****    0 ROOT 
@<TRIPOS>NORMAL
@<TRIPOS>FF_PBC
FORCE_FIELD_SETUP_FEATURE Force Field Setup information
v1.0  0 0.000000 0.000000 0.000000 0.000000 0.000000 0.000000 NONE 0 0 0 0 1 0 0 0 0 0 0 0 0
