#	Name:			PISM00833.2
#	Creating user name:	baoopengkun
#	Creation time:		Fri Nov 30 18:55:18 2018

#	Modifying user name:	baoopengkun
#	Modification time:	Fri Nov 30 18:58:38 2018

@<TRIPOS>MOLECULE
PISM00833.2
   33    34     1     2     0
SMALL
GAST_HUCK


@<TRIPOS>ATOM
      1 C1        -21.4423    0.4418   13.6395 C.ar      1 <1>        -0.0644 
      2 C2        -22.3891    1.0712   12.8260 C.ar      1 <1>        -0.0689 
      3 C3        -22.0901    2.2964   12.2246 C.ar      1 <1>        -0.0687 
      4 C4        -20.8501    2.8979   12.4554 C.ar      1 <1>        -0.0689 
      5 C5        -19.9130    2.2755   13.2855 C.ar      1 <1>        -0.0644 
      6 C6        -20.1936    1.0323   13.8657 C.ar      1 <1>        -0.0383 
      7 C7        -19.1721    0.3240   14.7340 C.2       1 <1>        -0.0129 
      8 C8        -19.6478   -0.3818   15.9843 C.3       1 <1>         0.0146 
      9 N9        -19.9986   -1.7785   15.6512 N.3       1 <1>        -0.3240 
     10 C10       -17.8756    0.3152   14.3933 C.2       1 <1>         0.0663 
     11 O11       -16.9888   -0.3211   15.1738 O.3       1 <1>        -0.2779 
     12 C12       -15.6399   -0.2643   14.6821 C.3       1 <1>         0.2369 
     13 C13       -14.7982   -1.1538   15.5634 C.2       1 <1>        -0.0012 
     14 C14       -14.3095   -2.1767   14.8647 C.2       1 <1>         0.0292 
     15 C15       -14.8162   -1.9427   13.5175 C.2       1 <1>         0.2495 
     16 O16       -15.5613   -0.8549   13.3681 O.3       1 <1>        -0.2307 
     17 O17       -14.5695   -2.6887   12.5857 O.2       1 <1>        -0.3691 
     18 C18       -13.4295   -3.3004   15.3395 C.3       1 <1>        -0.0323 
     19 H1        -21.6845   -0.5151   14.0895 H         1 <1>         0.0560 
     20 H2        -23.3564    0.6070   12.6595 H         1 <1>         0.0599 
     21 H3        -22.8190    2.7796   11.5811 H         1 <1>         0.0559 
     22 H4        -20.6161    3.8511   11.9910 H         1 <1>         0.0599 
     23 H5        -18.9699    2.7745   13.4811 H         1 <1>         0.0560 
     24 H6        -20.5305    0.1461   16.3804 H         1 <1>         0.0514 
     25 H7        -18.8744   -0.3608   16.7709 H         1 <1>         0.0514 
     26 H8        -20.3704   -2.2997   16.5238 H         1 <1>         0.1199 
     27 H9        -19.1365   -2.3024   15.2586 H         1 <1>         0.1199 
     28 H10       -17.5717    0.8179   13.4726 H         1 <1>         0.0991 
     29 H11       -15.2419    0.7645   14.6734 H         1 <1>         0.1208 
     30 H12       -14.6257   -0.9815   16.6250 H         1 <1>         0.0706 
     31 H13       -12.7788   -2.9608   16.1593 H         1 <1>         0.0347 
     32 H14       -12.8006   -3.6604   14.5114 H         1 <1>         0.0347 
     33 H15       -14.0586   -4.1287   15.6975 H         1 <1>         0.0347 
@<TRIPOS>BOND
     1    2    1 ar   
     2    2    3 ar   
     3    3    4 ar   
     4    4    5 ar   
     5    5    6 ar   
     6    1    6 ar   
     7    6    7 1    
     8    7    8 1    
     9    8    9 1    
    10    7   10 2    
    11   10   11 1    
    12   11   12 1    
    13   12   13 1    
    14   13   14 2    
    15   14   15 1    
    16   15   16 1    
    17   12   16 1    
    18   15   17 2    
    19   14   18 1    
    20    1   19 1    
    21    2   20 1    
    22    3   21 1    
    23    4   22 1    
    24    5   23 1    
    25    8   24 1    
    26    8   25 1    
    27    9   26 1    
    28    9   27 1    
    29   10   28 1    
    30   12   29 1    
    31   13   30 1    
    32   18   31 1    
    33   18   32 1    
    34   18   33 1    
@<TRIPOS>SUBSTRUCTURE
     1 ****        2 TEMP              0 ****  ****    0 ROOT 
@<TRIPOS>NORMAL
@<TRIPOS>FF_PBC
FORCE_FIELD_SETUP_FEATURE Force Field Setup information
v1.0  0 0.000000 0.000000 0.000000 0.000000 0.000000 0.000000 NONE 0 0 0 0 1 0 0 0 0 0 0 0 0
@<TRIPOS>RENDERING_ATTRS
ANTIALIASED_LINES 
*
