#	Name:			PISM00955.3
#	Creating user name:	baoopengkun
#	Creation time:		Thu Dec 13 10:20:57 2018

#	Modifying user name:	baoopengkun
#	Modification time:	Thu Dec 13 10:25:21 2018

@<TRIPOS>MOLECULE
PISM00955.3
   38    39     1     1     0
SMALL
GAST_HUCK


@<TRIPOS>ATOM
      1 C1         -9.9695    9.1060   -3.3511 C.3       1 <1>        -0.0575 
      2 C2        -11.0972    9.8534   -2.5736 C.3       1 <1>        -0.0059 
      3 C3        -11.1063   11.3383   -3.0554 C.3       1 <1>        -0.0575 
      4 C4        -10.7587    9.8358   -1.0547 C.3       1 <1>        -0.0575 
      5 C5        -12.5115    9.2364   -2.8576 C.3       1 <1>         0.1219 
      6 C6        -12.7127    7.7473   -2.4284 C.3       1 <1>         0.2332 
      7 N7        -12.8228    7.5843   -0.9851 N.pl3     1 <1>        -0.1431 
      8 N8        -13.3278    8.4809   -0.0909 N.2       1 <1>        -0.1875 
      9 C9        -13.2724    8.0752    1.1226 C.2       1 <1>         0.0619 
     10 N10       -12.6654    6.7854    0.9444 N.2       1 <1>        -0.2869 
     11 C11       -12.4369    6.5712   -0.2705 C.2       1 <1>         0.1311 
     12 O12       -13.5158   10.0755   -2.2533 O.3       1 <1>        -0.3851 
     13 O13       -13.9545    7.2223   -2.9394 O.3       1 <1>        -0.2786 
     14 C14       -14.0741    7.1379   -4.3275 C.ar      1 <1>         0.0956 
     15 C15       -13.3124    6.2133   -5.0489 C.ar      1 <1>        -0.0323 
     16 C16       -13.3941    6.1762   -6.4441 C.ar      1 <1>        -0.0567 
     17 C17       -14.2586    7.0438   -7.1173 C.ar      1 <1>         0.0285 
     18 C18       -15.0499    7.9407   -6.3944 C.ar      1 <1>        -0.0567 
     19 C19       -14.9624    7.9816   -4.9998 C.ar      1 <1>        -0.0323 
     20 Cl20      -14.3511    7.0058   -8.8660 Cl        1 <1>        -0.0810 
     21 H1         -9.8029    8.0905   -2.9656 H         1 <1>         0.0236 
     22 H2         -9.0147    9.6453   -3.2531 H         1 <1>         0.0236 
     23 H3        -10.2133    9.0387   -4.4224 H         1 <1>         0.0236 
     24 H4        -11.8592   11.9269   -2.5093 H         1 <1>         0.0236 
     25 H5        -11.3362   11.3978   -4.1304 H         1 <1>         0.0236 
     26 H6        -10.1276   11.8151   -2.8909 H         1 <1>         0.0236 
     27 H7        -10.6551    8.8076   -0.6806 H         1 <1>         0.0236 
     28 H8        -11.5442   10.3460   -0.4771 H         1 <1>         0.0236 
     29 H9         -9.8058   10.3539   -0.8665 H         1 <1>         0.0236 
     30 H10       -12.6539    9.2858   -3.9501 H         1 <1>         0.0661 
     31 H11       -11.8894    7.1223   -2.8001 H         1 <1>         0.1080 
     32 H12       -13.5967    8.5730    2.0352 H         1 <1>         0.0864 
     33 H13       -11.9780    5.6566   -0.6442 H         1 <1>         0.1362 
     34 H14       -14.3994    9.7403   -2.3684 H         1 <1>         0.2101 
     35 H15       -12.6597    5.5208   -4.5281 H         1 <1>         0.0543 
     36 H16       -12.7878    5.4737   -7.0069 H         1 <1>         0.0595 
     37 H17       -15.7308    8.6044   -6.9175 H         1 <1>         0.0595 
     38 H18       -15.5829    8.6696   -4.4357 H         1 <1>         0.0543 
@<TRIPOS>BOND
     1    2    1 1    
     2    2    3 1    
     3    2    4 1    
     4    2    5 1    
     5    5    6 1    
     6    6    7 1    
     7    7    8 1    
     8    8    9 2    
     9    9   10 1    
    10   10   11 2    
    11    7   11 1    
    12    5   12 1    
    13    6   13 1    
    14   13   14 1    
    15   14   15 ar   
    16   15   16 ar   
    17   16   17 ar   
    18   17   18 ar   
    19   18   19 ar   
    20   14   19 ar   
    21   17   20 1    
    22    1   21 1    
    23    1   22 1    
    24    1   23 1    
    25    3   24 1    
    26    3   25 1    
    27    3   26 1    
    28    4   27 1    
    29    4   28 1    
    30    4   29 1    
    31    5   30 1    
    32    6   31 1    
    33    9   32 1    
    34   11   33 1    
    35   12   34 1    
    36   15   35 1    
    37   16   36 1    
    38   18   37 1    
    39   19   38 1    
@<TRIPOS>SUBSTRUCTURE
     1 ****        2 TEMP              0 ****  ****    0 ROOT 
@<TRIPOS>NORMAL
@<TRIPOS>FF_PBC
FORCE_FIELD_SETUP_FEATURE Force Field Setup information
v1.0  0 0.000000 0.000000 0.000000 0.000000 0.000000 0.000000 NONE 0 0 0 0 1 0 0 0 0 0 0 0 0
