#	Name:			PISM00244
#	Creating user name:	14062
#	Creation time:		Wed Jun 19 22:05:36 2019

#	Modifying user name:	14062
#	Modification time:	Wed Jun 19 22:10:11 2019

@<TRIPOS>MOLECULE
PISM00244
   37    39     2     1     0
SMALL
GAST_HUCK


@<TRIPOS>ATOM
      1 C1        -11.3745    2.1477    1.3708 C.2       1 BENZYL      0.0197 
      2 N2        -10.5749    2.9074    0.6648 N.pl3     1 BENZYL     -0.2884 
      3 C2         -9.9353    2.2071   -0.2922 C.ar      1 BENZYL      0.0606 
      4 C3        -10.3278    0.8846   -0.2293 C.ar      1 BENZYL     -0.0189 
      5 C4         -9.8271   -0.0829   -1.0985 C.ar      1 BENZYL     -0.0745 
      6 C5         -8.8993    0.3500   -2.0552 C.ar      1 BENZYL     -0.0792 
      7 C6         -8.4988    1.6944   -2.1236 C.ar      1 BENZYL     -0.0767 
      8 C7         -9.0121    2.6518   -1.2379 C.ar      1 BENZYL     -0.0442 
      9 C9        -11.3104    0.8843    0.9136 C.2       1 BENZYL     -0.0209 
     10 C10       -12.0392   -0.3481    1.3892 C.3       1 BENZYL      0.0913 
     11 C11       -11.0397   -1.3752    1.8549 C.2       1 BENZYL      0.2417 
     12 O12        -9.9405   -1.0649    2.2855 O.2       1 BENZYL     -0.3685 
     13 O13       -11.4359   -2.6455    1.7735 O.3       1 BENZYL     -0.2916 
     14 C14       -13.0625   -0.0783    2.5231 C.3       1 BENZYL      0.0476 
     15 C15       -13.7704   -1.3475    2.9307 C.2       1 BENZYL      0.1366 
     16 O16       -13.5582   -1.7831    4.0510 O.2       1 BENZYL     -0.3781 
     17 H1        -11.9890    2.5037    2.1979 H         1 BENZYL      0.0804 
     18 C2        -14.7140   -2.1064    2.0175 C.ar      2 BENZYL      0.0329 
     19 C3        -15.0667   -3.4197    2.3522 C.ar      2 BENZYL     -0.0430 
     20 C4        -15.9163   -4.1651    1.5296 C.ar      2 BENZYL     -0.0559 
     21 C5        -16.4228   -3.6013    0.3562 C.ar      2 BENZYL     -0.0572 
     22 C6        -16.0863   -2.2880    0.0188 C.ar      2 BENZYL     -0.0559 
     23 C7        -15.2472   -1.5413    0.8515 C.ar      2 BENZYL     -0.0430 
     24 H2        -10.4452    3.9186    0.8216 H         1 BENZYL      0.2219 
     25 H3        -10.1428   -1.1185   -1.0321 H         1 BENZYL      0.0540 
     26 H4         -8.4833   -0.3682   -2.7551 H         1 BENZYL      0.0510 
     27 H5         -7.7778    1.9992   -2.8760 H         1 BENZYL      0.0530 
     28 H6         -8.7083    3.6920   -1.2823 H         1 BENZYL      0.0541 
     29 H7        -12.5544   -0.7598    0.5086 H         1 BENZYL      0.0659 
     30 H8        -10.7653   -3.2327    2.1045 H         1 BENZYL      0.2540 
     31 H9        -13.8030    0.6770    2.2219 H         1 BENZYL      0.0528 
     32 H10       -12.5172    0.3179    3.3952 H         1 BENZYL      0.0528 
     33 H11       -14.6778   -3.8734    3.2586 H         2 BENZYL      0.0672 
     34 H12       -16.1819   -5.1823    1.8018 H         2 BENZYL      0.0630 
     35 H13       -17.0756   -4.1808   -0.2897 H         2 BENZYL      0.0655 
     36 H14       -16.4800   -1.8469   -0.8924 H         2 BENZYL      0.0630 
     37 H15       -15.0265   -0.5176    0.5746 H         2 BENZYL      0.0672 
@<TRIPOS>BOND
     1    2    3 1    
     2    3    4 ar   
     3    3    8 ar   
     4    8    7 ar   
     5    7    6 ar   
     6    6    5 ar   
     7    5    4 ar   
     8    2    1 1    
     9    1    9 2    
    10    4    9 1    
    11    9   10 1    
    12   10   11 1    
    13   11   12 2    
    14   11   13 1    
    15   10   14 1    
    16   14   15 1    
    17   15   16 2    
    18   18   15 1    
    19   18   19 ar   
    20   18   23 ar   
    21   23   22 ar   
    22   22   21 ar   
    23   21   20 ar   
    24   20   19 ar   
    25    1   17 1    
    26    2   24 1    
    27    5   25 1    
    28    6   26 1    
    29    7   27 1    
    30    8   28 1    
    31   10   29 1    
    32   13   30 1    
    33   14   31 1    
    34   14   32 1    
    35   19   33 1    
    36   20   34 1    
    37   21   35 1    
    38   22   36 1    
    39   23   37 1    
@<TRIPOS>SUBSTRUCTURE
     1 BENZYL      2 PERM              0 ****  ****    1  
     2 BENZYL     18 PERM              0 ****  ****    1 ROOT 
@<TRIPOS>NORMAL
@<TRIPOS>FF_PBC
FORCE_FIELD_SETUP_FEATURE Force Field Setup information
v1.0  0 0.000000 0.000000 0.000000 0.000000 0.000000 0.000000 NONE 0 0 0 0 1 0 0 0 0 0 0 0 0
