#	Name:			PISM00033
#	Creating user name:	baoopengkun
#	Creation time:		Sat Nov 17 17:54:16 2018

#	Modifying user name:	baoopengkun
#	Modification time:	Sat Nov 17 17:57:15 2018

@<TRIPOS>MOLECULE
PISM00033
   29    30     1     2     0
SMALL
GAST_HUCK


@<TRIPOS>ATOM
      1 O1         -2.8885   -7.9332    9.5165 O.2       1 <1>        -0.3492 
      2 C2         -2.3588   -6.8454    9.3678 C.2       1 <1>         0.2576 
      3 C3         -1.1857   -6.3975   10.1299 C.2       1 <1>         0.0412 
      4 C4         -0.9139   -5.1638    9.6961 C.2       1 <1>         0.0412 
      5 C5         -1.9199   -4.8649    8.6684 C.2       1 <1>         0.2576 
      6 N6         -2.7050   -5.8943    8.5525 N.pl3     1 <1>        -0.1367 
      7 C7         -3.7513   -5.9661    7.6930 C.ar      1 <1>         0.0916 
      8 C8         -3.9591   -7.1164    6.9225 C.ar      1 <1>        -0.0152 
      9 C9         -5.0432   -7.2038    6.0415 C.ar      1 <1>         0.0528 
     10 C10        -5.9175   -6.1184    5.9193 C.ar      1 <1>        -0.0520 
     11 C11        -5.7118   -4.9617    6.6757 C.ar      1 <1>        -0.0652 
     12 C12        -4.6369   -4.8900    7.5658 C.ar      1 <1>        -0.0316 
     13 O13        -1.9655   -3.8152    8.0500 O.2       1 <1>        -0.3492 
     14 C14        -5.2701   -8.4584    5.2247 C.2       1 <1>         0.2606 
     15 O15        -6.3353   -8.5277    4.4113 O.3       1 <1>        -0.2779 
     16 C16        -6.4478   -9.7707    3.6890 C.3       1 <1>         0.0729 
     17 O17        -4.4816   -9.3868    5.3179 O.2       1 <1>        -0.3568 
     18 C18        -7.7170   -9.6989    2.8071 C.3       1 <1>        -0.0373 
     19 H1         -0.6576   -6.9689   10.8918 H         1 <1>         0.0816 
     20 H2         -0.1142   -4.5019   10.0249 H         1 <1>         0.0816 
     21 H3         -3.2682   -7.9486    7.0032 H         1 <1>         0.0591 
     22 H4         -6.7599   -6.1676    5.2364 H         1 <1>         0.0575 
     23 H5         -6.3886   -4.1186    6.5730 H         1 <1>         0.0600 
     24 H6         -4.4998   -3.9942    8.1625 H         1 <1>         0.0576 
     25 H7         -6.5399  -10.6207    4.3871 H         1 <1>         0.0608 
     26 H8         -5.5665   -9.9281    3.0436 H         1 <1>         0.0608 
     27 H9         -7.8434  -10.6314    2.2346 H         1 <1>         0.0255 
     28 H10        -7.6369   -8.8563    2.1027 H         1 <1>         0.0255 
     29 H11        -8.6048   -9.5463    3.4404 H         1 <1>         0.0255 
@<TRIPOS>BOND
     1    2    1 2    
     2    2    3 1    
     3    3    4 2    
     4    4    5 1    
     5    5    6 1    
     6    2    6 1    
     7    6    7 1    
     8    7    8 ar   
     9    8    9 ar   
    10    9   10 ar   
    11   10   11 ar   
    12   11   12 ar   
    13    7   12 ar   
    14    5   13 2    
    15    9   14 1    
    16   14   15 1    
    17   15   16 1    
    18   14   17 2    
    19   16   18 1    
    20    3   19 1    
    21    4   20 1    
    22    8   21 1    
    23   10   22 1    
    24   11   23 1    
    25   12   24 1    
    26   16   25 1    
    27   16   26 1    
    28   18   27 1    
    29   18   28 1    
    30   18   29 1    
@<TRIPOS>SUBSTRUCTURE
     1 ****        2 TEMP              0 ****  ****    0 ROOT 
@<TRIPOS>NORMAL
@<TRIPOS>FF_PBC
FORCE_FIELD_SETUP_FEATURE Force Field Setup information
v1.0  0 0.000000 0.000000 0.000000 0.000000 0.000000 0.000000 NONE 0 0 0 0 1 0 0 0 0 0 0 0 0
@<TRIPOS>RENDERING_ATTRS
ANTIALIASED_LINES 
*
