#	Name:			PISM00356
#	Creating user name:	baoopengkun
#	Creation time:		Sun Mar 31 22:21:44 2019

#	Modifying user name:	baoopengkun
#	Modification time:	Sun Mar 31 22:37:47 2019

@<TRIPOS>MOLECULE
PISM00356
   78    81     1     1     0
SMALL
GAST_HUCK


@<TRIPOS>ATOM
      1 N1         -2.9566    0.2105   -7.7967 N.2       1 <1>        -0.1730 
      2 C2         -3.7078   -0.7427   -7.3934 C.2       1 <1>         0.0653 
      3 N3         -2.8370   -1.8493   -7.6483 N.2       1 <1>        -0.2827 
      4 C4         -1.7502   -1.4605   -8.1346 C.2       1 <1>         0.1489 
      5 N5         -1.7215   -0.1552   -8.2717 N.pl3     1 <1>        -0.1236 
      6 C6         -0.7448    0.6146   -8.7224 C.2       1 <1>         0.1347 
      7 C7         -1.0522    2.1241   -8.7398 C.3       1 <1>         0.1322 
      8 C8         -0.8350    3.0702   -9.9876 C.3       1 <1>         0.0043 
      9 C9         -1.0341    2.2864  -11.3192 C.3       1 <1>        -0.0552 
     10 C10         0.5368    3.8194   -9.9864 C.3       1 <1>        -0.0552 
     11 C11        -1.9033    4.2148   -9.9621 C.3       1 <1>        -0.0552 
     12 O12        -0.5906    2.7471   -7.5301 O.3       1 <1>        -0.3716 
     13 C13         0.4287    0.0626   -9.1055 C.2       1 <1>        -0.0370 
     14 C14         1.6936    0.7454   -9.5539 C.ar      1 <1>        -0.0552 
     15 C15         2.1104    0.7532  -10.8917 C.ar      1 <1>        -0.0693 
     16 C16         3.3626    1.2721  -11.2398 C.ar      1 <1>        -0.0312 
     17 C17         4.2059    1.7546  -10.2434 C.ar      1 <1>         0.1107 
     18 C18         3.7154    1.9235   -8.9448 C.ar      1 <1>        -0.0312 
     19 C19         2.4957    1.3479   -8.5814 C.ar      1 <1>        -0.0693 
     20 N20         5.5120    2.0157  -10.4970 N.pl3     1 <1>        -0.1417 
     21 H1         -4.7165   -0.7251   -6.9782 H         1 <1>         0.0879 
     22 H2         -1.0202   -2.2366   -8.3559 H         1 <1>         0.1387 
     23 H3         -2.1407    2.1721   -8.6169 H         1 <1>         0.0846 
     24 H4         -2.0981    2.1180  -11.5365 H         1 <1>         0.0238 
     25 H5         -0.5654    1.3022  -11.2761 H         1 <1>         0.0238 
     26 H6         -0.5983    2.8329  -12.1680 H         1 <1>         0.0238 
     27 H7          1.3879    3.1494  -10.0776 H         1 <1>         0.0238 
     28 H8          0.6660    4.4207   -9.0758 H         1 <1>         0.0238 
     29 H9          0.6038    4.5145  -10.8354 H         1 <1>         0.0238 
     30 H10        -1.7596    4.9141  -10.7994 H         1 <1>         0.0238 
     31 H11        -2.9334    3.8279  -10.0392 H         1 <1>         0.0238 
     32 H12        -1.8276    4.7837   -9.0206 H         1 <1>         0.0238 
     33 H13         0.3522    2.7620   -7.4399 H         1 <1>         0.2141 
     34 H14         0.6205   -1.0027   -9.1223 H         1 <1>         0.0306 
     35 H15         1.4809    0.3405  -11.6705 H         1 <1>         0.0534 
     36 H16         3.6809    1.2896  -12.2789 H         1 <1>         0.0577 
     37 H17         4.2860    2.4756   -8.2122 H         1 <1>         0.0577 
     38 H18         2.1963    1.3470   -7.5399 H         1 <1>         0.0534 
     39 N39         6.3954    1.1444  -11.0213 N.2       1 <1>        -0.0916 
     40 N40         7.6521    1.6091  -10.9004 N.2       1 <1>        -0.2239 
     41 C41         7.4620    2.8934  -10.2769 C.2       1 <1>         0.0640 
     42 C42         6.1474    3.0843  -10.1103 C.2       1 <1>         0.0848 
     43 C43         8.5999    3.8141   -9.8984 C.3       1 <1>         0.0827 
     44 O44         9.3572    3.3564   -8.7485 O.3       1 <1>        -0.3686 
     45 C45         8.7814    3.6329   -7.4494 C.3       1 <1>         0.0729 
     46 C46         7.4057    2.9695   -7.1939 C.3       1 <1>         0.0713 
     47 O47         7.1009    2.9328   -5.7889 O.3       1 <1>        -0.3748 
     48 C48         5.8825    2.2220   -5.4778 C.3       1 <1>         0.0754 
     49 C49         5.7364    2.2981   -3.9458 C.3       1 <1>         0.0937 
     50 O50         4.7521    1.3709   -3.4612 O.3       1 <1>        -0.3157 
     51 C51         3.3963    1.5885   -3.7079 C.ar      1 <1>         0.0913 
     52 C52         2.6677    0.6760   -4.4755 C.ar      1 <1>        -0.0314 
     53 C53         1.2672    0.7263   -4.4757 C.ar      1 <1>        -0.0458 
     54 C54         0.6057    1.6970   -3.7199 C.ar      1 <1>         0.0767 
     55 C55         1.3435    2.7593   -3.1901 C.ar      1 <1>        -0.0458 
     56 C56         2.7390    2.6950   -3.1558 C.ar      1 <1>        -0.0314 
     57 S57        -1.1519    1.5877   -3.4219 S.o2      1 <1>        -0.0106 
     58 O58        -1.5357    2.6537   -2.5146 O.2       1 <1>        -0.1710 
     59 O59        -1.4626    0.2182   -3.0585 O.2       1 <1>        -0.1710 
     60 C60        -1.9130    1.9219   -5.0120 C.3       1 <1>         0.0582 
     61 H19         5.6799    3.9718   -9.6869 H         1 <1>         0.0902 
     62 H20         8.2567    4.8530   -9.7699 H         1 <1>         0.0679 
     63 H21         9.2991    3.7898  -10.7498 H         1 <1>         0.0679 
     64 H22         8.7175    4.7175   -7.2680 H         1 <1>         0.0584 
     65 H23         9.4863    3.2152   -6.7154 H         1 <1>         0.0584 
     66 H24         7.4252    1.9592   -7.6354 H         1 <1>         0.0583 
     67 H25         6.6239    3.5787   -7.6556 H         1 <1>         0.0583 
     68 H26         5.9627    1.1630   -5.7766 H         1 <1>         0.0587 
     69 H27         4.9876    2.6625   -5.9476 H         1 <1>         0.0587 
     70 H28         6.6999    1.9999   -3.5065 H         1 <1>         0.0637 
     71 H29         5.5368    3.3337   -3.6397 H         1 <1>         0.0637 
     72 H30         3.1930   -0.0753   -5.0553 H         1 <1>         0.0542 
     73 H31         0.6984    0.0047   -5.0541 H         1 <1>         0.0608 
     74 H32         0.8350    3.6310   -2.7931 H         1 <1>         0.0608 
     75 H33         3.3063    3.4880   -2.6869 H         1 <1>         0.0542 
     76 H34        -3.0057    1.8666   -4.9089 H         1 <1>         0.0466 
     77 H35        -1.6341    2.9339   -5.3312 H         1 <1>         0.0466 
     78 H36        -1.5804    1.1756   -5.7448 H         1 <1>         0.0466 
@<TRIPOS>BOND
     1    2    1 2    
     2    2    3 1    
     3    3    4 2    
     4    4    5 1    
     5    1    5 1    
     6    5    6 1    
     7    6    7 1    
     8    7    8 1    
     9    8    9 1    
    10    8   10 1    
    11    8   11 1    
    12    7   12 1    
    13    6   13 2    
    14   13   14 1    
    15   14   15 ar   
    16   15   16 ar   
    17   16   17 ar   
    18   17   18 ar   
    19   18   19 ar   
    20   14   19 ar   
    21   17   20 1    
    22    2   21 1    
    23    4   22 1    
    24    7   23 1    
    25    9   24 1    
    26    9   25 1    
    27    9   26 1    
    28   10   27 1    
    29   10   28 1    
    30   10   29 1    
    31   11   30 1    
    32   11   31 1    
    33   11   32 1    
    34   12   33 1    
    35   13   34 1    
    36   15   35 1    
    37   16   36 1    
    38   18   37 1    
    39   19   38 1    
    40   20   39 1    
    41   39   40 2    
    42   40   41 1    
    43   41   42 2    
    44   20   42 1    
    45   41   43 1    
    46   43   44 1    
    47   44   45 1    
    48   45   46 1    
    49   46   47 1    
    50   47   48 1    
    51   48   49 1    
    52   49   50 1    
    53   50   51 1    
    54   51   52 ar   
    55   52   53 ar   
    56   53   54 ar   
    57   54   55 ar   
    58   55   56 ar   
    59   51   56 ar   
    60   54   57 1    
    61   57   58 2    
    62   57   59 2    
    63   57   60 1    
    64   42   61 1    
    65   43   62 1    
    66   43   63 1    
    67   45   64 1    
    68   45   65 1    
    69   46   66 1    
    70   46   67 1    
    71   48   68 1    
    72   48   69 1    
    73   49   70 1    
    74   49   71 1    
    75   52   72 1    
    76   53   73 1    
    77   55   74 1    
    78   56   75 1    
    79   60   76 1    
    80   60   77 1    
    81   60   78 1    
@<TRIPOS>SUBSTRUCTURE
     1 ****        2 TEMP              0 ****  ****    0 ROOT 
@<TRIPOS>NORMAL
@<TRIPOS>FF_PBC
FORCE_FIELD_SETUP_FEATURE Force Field Setup information
v1.0  0 0.000000 0.000000 0.000000 0.000000 0.000000 0.000000 NONE 0 0 0 0 1 0 0 0 0 0 0 0 0
