#	Name:			PISM00776.1
#	Creating user name:	malab
#	Creation time:		Fri Apr 12 09:33:31 2019

#	Modifying user name:	malab
#	Modification time:	Fri Apr 12 09:33:58 2019

@<TRIPOS>MOLECULE
PISM00776.1
   50    53     1     2     0
SMALL
GAST_HUCK


@<TRIPOS>ATOM
      1 C1         10.9140   10.6574   -2.0932 C.3       1 <1>        -0.0240 
      2 C2         12.2183   11.4605   -1.8961 C.3       1 <1>        -0.0149 
      3 C3         12.3991   12.0750   -3.2541 C.2       1 <1>        -0.0648 
      4 C4         11.5158   11.4665   -4.3148 C.3       1 <1>         0.0391 
      5 C5         10.9499   10.2155   -3.5815 C.3       1 <1>         0.0130 
      6 C6         13.2782   13.0561   -3.4891 C.2       1 <1>        -0.1285 
      7 C7         10.4002   12.4506   -4.7719 C.3       1 <1>         0.1082 
      8 C8          9.6351    9.6931   -4.1315 C.2       1 <1>        -0.0675 
      9 C9          9.5014    9.6163   -5.6371 C.3       1 <1>        -0.0173 
     10 C10         8.8197   10.9052   -6.1673 C.3       1 <1>        -0.0336 
     11 C11         9.7946   12.1118   -6.1556 C.3       1 <1>         0.0335 
     12 C12         8.6145    9.3031   -3.3533 C.2       1 <1>        -0.1286 
     13 O13        10.8869   13.7868   -4.9635 O.3       1 <1>        -0.2688 
     14 C14        10.1449   14.3885   -5.8986 C.2       1 <1>         0.2909 
     15 C15         9.1976   13.4648   -6.6268 C.3       1 <1>         0.1858 
     16 O16        10.2579   15.5770   -6.1511 O.2       1 <1>        -0.3093 
     17 C17         7.7516   13.7786   -6.1572 C.3       1 <1>         0.0912 
     18 O18         7.6352   13.5761   -4.7365 O.3       1 <1>        -0.3332 
     19 C19         6.3309   13.8496   -4.1950 C.3       1 <1>         0.2146 
     20 O20         6.3946   13.4565   -2.8101 O.3       1 <1>        -0.2355 
     21 C21         6.2407   14.5767   -2.1164 C.2       1 <1>         0.2491 
     22 O22         6.2813   14.5919   -0.8982 O.2       1 <1>        -0.3691 
     23 C23         6.0076   15.7775   -2.9098 C.2       1 <1>         0.0288 
     24 C24         6.0434   15.3337   -4.1645 C.2       1 <1>        -0.0067 
     25 C25         5.7671   17.1815   -2.4266 C.3       1 <1>        -0.0323 
     26 H1         10.0565   11.3278   -1.9179 H         1 <1>         0.0323 
     27 H2         10.8542    9.8113   -1.3888 H         1 <1>         0.0323 
     28 H3         13.0663   10.7832   -1.7058 H         1 <1>         0.0462 
     29 H4         12.1493   12.2033   -1.0849 H         1 <1>         0.0462 
     30 H5         12.1529   11.1876   -5.1695 H         1 <1>         0.0553 
     31 H6         11.6894    9.4003   -3.6656 H         1 <1>         0.0527 
     32 H7         13.4027   13.4751   -4.4870 H         1 <1>         0.0075 
     33 H8         13.8936   13.4541   -2.6829 H         1 <1>         0.0075 
     34 H9          9.6196   12.5032   -3.9984 H         1 <1>         0.0683 
     35 O35         9.3077   13.6148   -8.0586 O.3       1 <1>        -0.3812 
     36 H10         8.8658    8.7534   -5.8978 H         1 <1>         0.0460 
     37 H11        10.4761    9.4479   -6.1212 H         1 <1>         0.0460 
     38 H12         8.4876   10.7419   -7.2060 H         1 <1>         0.0295 
     39 H13         7.9291   11.1076   -5.5520 H         1 <1>         0.0295 
     40 H14        10.6290   11.8931   -6.8441 H         1 <1>         0.0348 
     41 H15         8.6421    9.3181   -2.2663 H         1 <1>         0.0075 
     42 H16         7.6846    8.9422   -3.7919 H         1 <1>         0.0075 
     43 H17         7.0475   13.1281   -6.6991 H         1 <1>         0.0578 
     44 H18         7.5408   14.8230   -6.4344 H         1 <1>         0.0578 
     45 H19         5.5303   13.2749   -4.6894 H         1 <1>         0.1143 
     46 H20         5.8887   15.9668   -5.0367 H         1 <1>         0.0701 
     47 H21         4.8903   17.6098   -2.9350 H         1 <1>         0.0347 
     48 H22         6.6498   17.8006   -2.6454 H         1 <1>         0.0347 
     49 H23         5.5870   17.1859   -1.3411 H         1 <1>         0.0347 
     50 H24         8.7803   12.9883   -8.5427 H         1 <1>         0.2079 
@<TRIPOS>BOND
     1    1    2 1    
     2    2    3 1    
     3    4    3 1    
     4    5    4 1    
     5    5    1 1    
     6    3    6 2    
     7    4    7 1    
     8    8    5 1    
     9    9    8 1    
    10   10   11 1    
    11    9   10 1    
    12    7   11 1    
    13    8   12 2    
    14    7   13 1    
    15   13   14 1    
    16   14   15 1    
    17   11   15 1    
    18   14   16 2    
    19   15   17 1    
    20   17   18 1    
    21   18   19 1    
    22   19   20 1    
    23   20   21 1    
    24   21   22 2    
    25   21   23 1    
    26   23   24 2    
    27   19   24 1    
    28   23   25 1    
    29    1   26 1    
    30    1   27 1    
    31    2   28 1    
    32    2   29 1    
    33    4   30 1    
    34    5   31 1    
    35    6   32 1    
    36    6   33 1    
    37   15   35 1    
    38    7   34 1    
    39    9   36 1    
    40    9   37 1    
    41   10   38 1    
    42   10   39 1    
    43   11   40 1    
    44   12   41 1    
    45   12   42 1    
    46   17   43 1    
    47   17   44 1    
    48   19   45 1    
    49   24   46 1    
    50   25   47 1    
    51   25   48 1    
    52   25   49 1    
    53   35   50 1    
@<TRIPOS>SUBSTRUCTURE
     1 ****        2 TEMP              0 ****  ****    0 ROOT 
@<TRIPOS>NORMAL
@<TRIPOS>FF_PBC
FORCE_FIELD_SETUP_FEATURE Force Field Setup information
v1.0  0 0.000000 0.000000 0.000000 0.000000 0.000000 0.000000 NONE 0 0 0 0 1 0 0 0 0 0 0 0 0
@<TRIPOS>RENDERING_ATTRS
LINES           
1,2,3,4,5,6,7,8,9,10,11,12,13,14,15,16,17,18,35
