#	Name:			PISM00446
#	Creating user name:	baoopengkun
#	Creation time:		Sun Mar 31 21:53:33 2019

#	Modifying user name:	baoopengkun
#	Modification time:	Sun Mar 31 21:55:26 2019

@<TRIPOS>MOLECULE
PISM00446
   44    45     1     1     0
SMALL
GAST_HUCK


@<TRIPOS>ATOM
      1 C1          4.1891    7.6886  -10.5781 C.ar      1 <1>         0.1098 
      2 C2          2.9257    8.2699  -10.4254 C.ar      1 <1>         0.1088 
      3 C3          2.4424    8.5617   -9.1479 C.ar      1 <1>        -0.0482 
      4 C4          3.2071    8.2532   -8.0202 C.ar      1 <1>        -0.0801 
      5 C5          4.4783    7.6797   -8.1575 C.ar      1 <1>        -0.0624 
      6 C6          4.9665    7.4131   -9.4447 C.ar      1 <1>        -0.0401 
      7 O7          2.1408    8.5632  -11.5422 O.3       1 <1>        -0.3414 
      8 O8          4.6454    7.3992  -11.8722 O.3       1 <1>        -0.3385 
      9 C9          5.3058    7.3756   -6.8928 C.3       1 <1>        -0.0237 
     10 C10         5.9713    5.9648   -6.8592 C.3       1 <1>        -0.0316 
     11 C11         6.7345    5.6527   -5.5213 C.3       1 <1>        -0.0316 
     12 C12         7.9132    6.6421   -5.2694 C.3       1 <1>        -0.0237 
     13 C13         8.8118    6.1829   -4.1078 C.ar      1 <1>        -0.0624 
     14 C14         8.6879    6.7452   -2.8320 C.ar      1 <1>        -0.0401 
     15 C15         9.5497    6.3653   -1.7935 C.ar      1 <1>         0.1098 
     16 C16        10.5461    5.4110   -2.0296 C.ar      1 <1>         0.1088 
     17 C17        10.6409    4.8112   -3.2912 C.ar      1 <1>        -0.0482 
     18 C18         9.7775    5.1947   -4.3206 C.ar      1 <1>        -0.0801 
     19 O19         9.4296    6.9273   -0.5164 O.3       1 <1>        -0.3385 
     20 O20        11.4300    5.0689   -0.9986 O.3       1 <1>        -0.3414 
     21 C21         5.8259    5.5724   -4.2591 C.3       1 <1>        -0.0604 
     22 C22         4.9275    4.8641   -7.2118 C.3       1 <1>        -0.0604 
     23 H1          1.4705    9.0298   -9.0323 H         1 <1>         0.0492 
     24 H2          2.7974    8.4724   -7.0381 H         1 <1>         0.0436 
     25 H3          5.9570    6.9930   -9.5745 H         1 <1>         0.0450 
     26 H4          2.5958    8.3577  -12.3515 H         1 <1>         0.2420 
     27 H5          5.5010    6.9859  -11.9089 H         1 <1>         0.2442 
     28 H6          4.6538    7.4565   -6.0133 H         1 <1>         0.0407 
     29 H7          6.0611    8.1725   -6.8240 H         1 <1>         0.0407 
     30 H8          6.7398    5.9338   -7.6481 H         1 <1>         0.0322 
     31 H9          7.1900    4.6547   -5.6461 H         1 <1>         0.0322 
     32 H10         7.5316    7.6496   -5.0491 H         1 <1>         0.0407 
     33 H11         8.5394    6.7200   -6.1722 H         1 <1>         0.0407 
     34 H12         7.9158    7.4845   -2.6478 H         1 <1>         0.0450 
     35 H13        11.3826    4.0423   -3.4776 H         1 <1>         0.0492 
     36 H14         9.8637    4.7204   -5.2918 H         1 <1>         0.0436 
     37 H15         8.6893    7.5125   -0.4059 H         1 <1>         0.2442 
     38 H16        12.1729    4.5487   -1.2767 H         1 <1>         0.2420 
     39 H17         6.4023    5.1951   -3.4001 H         1 <1>         0.0234 
     40 H18         4.9852    4.8805   -4.4098 H         1 <1>         0.0234 
     41 H19         5.4255    6.5591   -3.9814 H         1 <1>         0.0234 
     42 H20         4.5996    4.9582   -8.2583 H         1 <1>         0.0234 
     43 H21         4.0349    4.9414   -6.5750 H         1 <1>         0.0234 
     44 H22         5.3655    3.8622   -7.0882 H         1 <1>         0.0234 
@<TRIPOS>BOND
     1    2    1 ar   
     2    2    3 ar   
     3    3    4 ar   
     4    4    5 ar   
     5    5    6 ar   
     6    1    6 ar   
     7    2    7 1    
     8    1    8 1    
     9    5    9 1    
    10    9   10 1    
    11   10   11 1    
    12   11   12 1    
    13   12   13 1    
    14   13   14 ar   
    15   14   15 ar   
    16   15   16 ar   
    17   16   17 ar   
    18   17   18 ar   
    19   13   18 ar   
    20   15   19 1    
    21   16   20 1    
    22   11   21 1    
    23   10   22 1    
    24    3   23 1    
    25    4   24 1    
    26    6   25 1    
    27    7   26 1    
    28    8   27 1    
    29    9   28 1    
    30    9   29 1    
    31   10   30 1    
    32   11   31 1    
    33   12   32 1    
    34   12   33 1    
    35   14   34 1    
    36   17   35 1    
    37   18   36 1    
    38   19   37 1    
    39   20   38 1    
    40   21   39 1    
    41   21   40 1    
    42   21   41 1    
    43   22   42 1    
    44   22   43 1    
    45   22   44 1    
@<TRIPOS>SUBSTRUCTURE
     1 ****        2 TEMP              0 ****  ****    0 ROOT 
@<TRIPOS>NORMAL
@<TRIPOS>FF_PBC
FORCE_FIELD_SETUP_FEATURE Force Field Setup information
v1.0  0 0.000000 0.000000 0.000000 0.000000 0.000000 0.000000 NONE 0 0 0 0 1 0 0 0 0 0 0 0 0
