#	Name:			PISM00769.1
#	Creating user name:	baoopengkun
#	Creation time:		Tue Nov 20 09:58:54 2018

#	Modifying user name:	baoopengkun
#	Modification time:	Tue Nov 20 10:43:52 2018

@<TRIPOS>MOLECULE
PISM00769.1
   47    50     1     3     0
SMALL
GAST_HUCK


@<TRIPOS>ATOM
      1 C1         14.3228   15.0509   -7.6921 C.3       1 <1>        -0.0240 
      2 C2         14.4516   14.3092   -9.0402 C.3       1 <1>        -0.0149 
      3 C3         13.2751   13.3789   -8.9751 C.2       1 <1>        -0.0647 
      4 C4         12.6868   13.2463   -7.5926 C.3       1 <1>         0.0401 
      5 C5         13.7391   13.9904   -6.7195 C.3       1 <1>         0.0131 
      6 C6         12.8139   12.7227  -10.0461 C.2       1 <1>        -0.1285 
      7 C7         11.2741   13.8885   -7.4847 C.3       1 <1>         0.1095 
      8 C8         13.1997   14.5408   -5.4109 C.2       1 <1>        -0.0674 
      9 C9         12.3138   13.6237   -4.5961 C.3       1 <1>        -0.0162 
     10 C10        10.8161   13.8774   -4.9157 C.3       1 <1>        -0.0307 
     11 C11        10.4220   13.3138   -6.3062 C.3       1 <1>         0.0226 
     12 C12        13.4752   15.7733   -4.9591 C.2       1 <1>        -0.1285 
     13 O13        10.4821   13.7470   -8.6840 O.3       1 <1>        -0.2758 
     14 C14         9.2252   13.7836   -8.2698 C.2       1 <1>         0.2357 
     15 C15         9.0514   13.6420   -6.8317 C.2       1 <1>         0.0531 
     16 O16         8.2846   13.9062   -9.0355 O.2       1 <1>        -0.3780 
     17 C17         7.9057   13.7750   -6.1553 C.2       1 <1>         0.0787 
     18 O18         7.8923   13.6049   -4.8273 O.3       1 <1>        -0.2722 
     19 C19         6.6077   13.8138   -4.2139 C.3       1 <1>         0.2383 
     20 O20         6.7700   13.5472   -2.8068 O.3       1 <1>        -0.2305 
     21 C21         6.5359   14.7026   -2.1979 C.2       1 <1>         0.2495 
     22 O22         6.6176   14.8215   -0.9877 O.2       1 <1>        -0.3691 
     23 C23         6.1682   15.8096   -3.0728 C.2       1 <1>         0.0293 
     24 C24         6.2028   15.2692   -4.2892 C.2       1 <1>        -0.0010 
     25 C25         5.8238   17.2241   -2.6937 C.3       1 <1>        -0.0323 
     26 H1         13.6098   15.8824   -7.8178 H         1 <1>         0.0323 
     27 H2         15.2926   15.4580   -7.3615 H         1 <1>         0.0323 
     28 H3         15.3727   13.7051   -9.0646 H         1 <1>         0.0462 
     29 H4         14.4297   14.9858   -9.9099 H         1 <1>         0.0462 
     30 H5         12.6338   12.1733   -7.3480 H         1 <1>         0.0555 
     31 H6         14.5515   13.2846   -6.4741 H         1 <1>         0.0527 
     32 H7         13.2813   12.8538  -11.0215 H         1 <1>         0.0075 
     33 H8         11.9666   12.0425   -9.9671 H         1 <1>         0.0075 
     34 H9         11.3688   14.9804   -7.3536 H         1 <1>         0.0696 
     35 H10        12.4802   13.8273   -3.5248 H         1 <1>         0.0461 
     36 H11        12.5776   12.5669   -4.7605 H         1 <1>         0.0461 
     37 H12        10.2162   13.3690   -4.1435 H         1 <1>         0.0309 
     38 H13        10.5942   14.9559   -4.8673 H         1 <1>         0.0309 
     39 H14        10.4861   12.2133   -6.2913 H         1 <1>         0.0421 
     40 H15        14.1136   16.4817   -5.4819 H         1 <1>         0.0075 
     41 H16        13.0581   16.1277   -4.0167 H         1 <1>         0.0075 
     42 H17         7.0168   14.0183   -6.7423 H         1 <1>         0.1070 
     43 H18         5.8311   13.1406   -4.6152 H         1 <1>         0.1210 
     44 H19         5.9736   15.8114   -5.2056 H         1 <1>         0.0706 
     45 H20         5.8149   17.3361   -1.5992 H         1 <1>         0.0347 
     46 H21         4.8295   17.4839   -3.0865 H         1 <1>         0.0347 
     47 H22         6.5703   17.9125   -3.1169 H         1 <1>         0.0347 
@<TRIPOS>BOND
     1    2    1 1    
     2    2    3 1    
     3    3    4 1    
     4    4    5 1    
     5    1    5 1    
     6    3    6 2    
     7    4    7 1    
     8    5    8 1    
     9    8    9 1    
    10   11   10 1    
    11    9   10 1    
    12    7   11 1    
    13    8   12 2    
    14    7   13 1    
    15   13   14 1    
    16   14   15 1    
    17   11   15 1    
    18   14   16 2    
    19   15   17 2    
    20   17   18 1    
    21   18   19 1    
    22   19   20 1    
    23   20   21 1    
    24   21   22 2    
    25   21   23 1    
    26   23   24 2    
    27   19   24 1    
    28   23   25 1    
    29    1   26 1    
    30    1   27 1    
    31    2   28 1    
    32    2   29 1    
    33    4   30 1    
    34    5   31 1    
    35    6   32 1    
    36    6   33 1    
    37    7   34 1    
    38    9   35 1    
    39    9   36 1    
    40   10   37 1    
    41   10   38 1    
    42   11   39 1    
    43   12   40 1    
    44   12   41 1    
    45   17   42 1    
    46   19   43 1    
    47   24   44 1    
    48   25   45 1    
    49   25   46 1    
    50   25   47 1    
@<TRIPOS>SUBSTRUCTURE
     1 ****        2 TEMP              0 ****  ****    0 ROOT 
@<TRIPOS>NORMAL
@<TRIPOS>FF_PBC
FORCE_FIELD_SETUP_FEATURE Force Field Setup information
v1.0  0 0.000000 0.000000 0.000000 0.000000 0.000000 0.000000 NONE 0 0 0 0 1 0 0 0 0 0 0 0 0
@<TRIPOS>RENDERING_ATTRS
LINES           
1,2,3,4,5,6,7,8,9,10,11,12,13,14,15,16,17,18,26,27,28,29,30,31,32,33,34,35,36,37,38,39,40,41,42
ANTIALIASED_LINES 
19,20,21,22,23,24,25,43,44,45,46,47
