#	Name:			PISM01029
#	Creating user name:	14062
#	Creation time:		Sat Oct 19 23:50:29 2019

#	Modifying user name:	14062
#	Modification time:	Sun Oct 20 00:11:32 2019

@<TRIPOS>MOLECULE
PISM01029
   31    33     3     1     0
SMALL
GAST_HUCK


@<TRIPOS>ATOM
      1 C1          2.4014   -0.3635   -4.0701 C.2       1 BENZYL      0.1267 
      2 N2          3.3211    0.3931   -3.5225 N.pl3     1 BENZYL     -0.2266 
      3 C2          4.4656    0.7241   -4.1846 C.ar      1 BENZYL      0.0970 
      4 C3          4.6526    0.2997   -5.5038 C.ar      1 BENZYL      0.0804 
      5 C4          5.7870    0.6619   -6.2363 C.ar      1 BENZYL     -0.0557 
      6 C5          6.7720    1.4507   -5.6381 C.ar      1 BENZYL     -0.0742 
      7 C6          6.6186    1.8551   -4.3098 C.ar      1 BENZYL     -0.0729 
      8 C7          5.4820    1.4829   -3.5849 C.ar      1 BENZYL     -0.0343 
      9 N9          2.5078   -0.8522   -5.3247 N.am      1 BENZYL     -0.2403 
     10 C10         3.5702   -0.5699   -6.0921 C.2       1 BENZYL      0.2245 
     11 O11         3.6675   -0.9978   -7.2299 O.2       1 BENZYL     -0.3868 
     12 Cl12        2.2996    4.3438   -0.4024 Cl        3 NO         -0.0835 
     13 H1          1.4982   -0.6175   -3.5060 H         1 BENZYL      0.0833 
     14 C2          3.1035    0.8505   -2.2656 C.ar      2 BENZYL      0.0771 
     15 C3          2.7770    2.1953   -2.0432 C.ar      2 BENZYL     -0.0097 
     16 C4          2.6269    2.6522   -0.7277 C.ar      2 BENZYL      0.0260 
     17 C5          2.7387    1.7646    0.3461 C.ar      2 BENZYL     -0.0732 
     18 C6          3.0215    0.4160    0.1168 C.ar      2 BENZYL     -0.0840 
     19 C7          3.2102   -0.0371   -1.1909 C.ar      2 BENZYL     -0.0476 
     20 H2          5.9037    0.3327   -7.2641 H         1 BENZYL      0.0584 
     21 H3          7.6521    1.7462   -6.2016 H         1 BENZYL      0.0494 
     22 H4          7.3875    2.4606   -3.8389 H         1 BENZYL      0.0605 
     23 H5          5.4143    1.7959   -2.5488 H         1 BENZYL      0.0501 
     24 H6          1.7932   -1.4307   -5.7208 H         1 BENZYL      0.2332 
     25 C25         2.5825    3.1670   -3.2165 C.3       2 BENZYL     -0.0337 
     26 H8          2.6054    2.1252    1.3610 H         2 BENZYL      0.0451 
     27 H9          3.0965   -0.2756    0.9506 H         2 BENZYL      0.0511 
     28 H10         3.4439   -1.0809   -1.3746 H         2 BENZYL      0.0486 
     29 H7          3.4495    3.8422   -3.2679 H         2 BENZYL      0.0370 
     30 H11         1.6704    3.7630   -3.0640 H         2 BENZYL      0.0370 
     31 H12         2.4817    2.6469   -4.1801 H         2 BENZYL      0.0370 
@<TRIPOS>BOND
     1    2    3 1    
     2    3    4 ar   
     3    3    8 ar   
     4    8    7 ar   
     5    7    6 ar   
     6    6    5 ar   
     7    5    4 ar   
     8    2    1 1    
     9    1    9 1    
    10    9   10 am   
    11    4   10 1    
    12   10   11 2    
    13    1   13 1    
    14   14    2 1    
    15   14   15 ar   
    16   14   19 ar   
    17   19   18 ar   
    18   18   17 ar   
    19   17   16 ar   
    20   16   15 ar   
    21   16   12 1    
    22    5   20 1    
    23    6   21 1    
    24    7   22 1    
    25    8   23 1    
    26    9   24 1    
    27   15   25 1    
    28   17   26 1    
    29   18   27 1    
    30   19   28 1    
    31   25   29 1    
    32   25   30 1    
    33   25   31 1    
@<TRIPOS>SUBSTRUCTURE
     1 BENZYL      2 PERM              0 ****  ****    1  
     2 BENZYL     14 PERM              0 ****  ****    2 ROOT 
     3 NO         12 PERM              0 ****  ****    1  
@<TRIPOS>NORMAL
@<TRIPOS>FF_PBC
FORCE_FIELD_SETUP_FEATURE Force Field Setup information
v1.0  0 0.000000 0.000000 0.000000 0.000000 0.000000 0.000000 NONE 0 0 0 0 1 0 0 0 0 0 0 0 0
