#	Name:			PISM00206
#	Creating user name:	14062
#	Creation time:		Mon Apr 01 20:10:24 2019

#	Modifying user name:	14062
#	Modification time:	Mon Apr 01 20:25:01 2019

@<TRIPOS>MOLECULE
PISM00206
   52    53     1     2     0
SMALL
GAST_HUCK


@<TRIPOS>ATOM
      1 N1          0.0156    4.6424   -3.1254 N.pl3     1 <1>        -0.2884 
      2 C2         -1.0331    3.8014   -3.0340 C.ar      1 <1>         0.0606 
      3 C3         -2.1013    4.4593   -2.4552 C.ar      1 <1>        -0.0191 
      4 C4         -3.3266    3.8334   -2.2307 C.ar      1 <1>        -0.0746 
      5 C5         -3.4310    2.4928   -2.6245 C.ar      1 <1>        -0.0792 
      6 C6         -2.3480    1.8210   -3.2139 C.ar      1 <1>        -0.0767 
      7 C7         -1.5394    5.8365   -2.2100 C.2       1 <1>        -0.0230 
      8 C8         -0.2697    5.8279   -2.6498 C.2       1 <1>         0.0195 
      9 C9         -1.1233    2.4673   -3.4305 C.ar      1 <1>        -0.0442 
     10 C10        -2.2799    6.9933   -1.5915 C.3       1 <1>         0.0783 
     11 C11        -1.3374    7.7433   -0.6735 C.2       1 <1>         0.2396 
     12 O12        -1.0610    8.9144   -0.8674 O.2       1 <1>        -0.3687 
     13 O13        -0.7931    7.1049    0.3679 O.3       1 <1>        -0.2917 
     14 C14        -3.8204    7.1548   -3.6553 C.3       1 <1>         0.0512 
     15 C15        -3.7138    8.7488   -5.4831 C.3       1 <1>         0.0677 
     16 C16        -4.6369    9.4692   -6.4943 C.3       1 <1>         0.0562 
     17 N17        -3.8396   10.2916   -7.4032 N.am      1 <1>        -0.2603 
     18 C18        -3.1221    9.7097   -8.3859 C.2       1 <1>         0.3200 
     19 O19        -3.1189    8.5074   -8.5862 O.2       1 <1>        -0.3775 
     20 O20        -2.4257   10.6099   -9.0939 O.3       1 <1>        -0.2581 
     21 C21        -1.6035   10.1068  -10.1726 C.3       1 <1>         0.0905 
     22 C22        -0.4715    9.1650   -9.6677 C.3       1 <1>        -0.0320 
     23 C23        -0.9509   11.3921  -10.7565 C.3       1 <1>        -0.0320 
     24 C24        -2.4459    9.4304  -11.2929 C.3       1 <1>        -0.0320 
     25 C25        -2.8411    7.9079   -2.7145 C.3       1 <1>        -0.0042 
     26 H1          0.9306    4.3818   -3.5250 H         1 <1>         0.2219 
     27 H2         -4.1572    4.3591   -1.7729 H         1 <1>         0.0540 
     28 H3         -4.3672    1.9649   -2.4701 H         1 <1>         0.0510 
     29 H4         -2.4598    0.7818   -3.5078 H         1 <1>         0.0530 
     30 H5          0.4100    6.6808   -2.6144 H         1 <1>         0.0804 
     31 O31        -4.5431    8.0275   -4.5486 O.3       1 <1>        -0.3775 
     32 H6         -0.2814    1.9570   -3.8855 H         1 <1>         0.0541 
     33 H7         -3.1090    6.6171   -0.9726 H         1 <1>         0.0635 
     34 H8         -1.0495    6.1944    0.4525 H         1 <1>         0.2540 
     35 H9         -3.2977    6.3718   -4.2290 H         1 <1>         0.0562 
     36 H10        -4.5946    6.6644   -3.0450 H         1 <1>         0.0562 
     37 H11        -3.0399    8.0689   -6.0294 H         1 <1>         0.0580 
     38 H12        -3.1137    9.5179   -4.9732 H         1 <1>         0.0580 
     39 H13        -5.3533   10.0935   -5.9339 H         1 <1>         0.0542 
     40 H14        -5.2196    8.7186   -7.0540 H         1 <1>         0.0542 
     41 H15        -3.8052   11.2837   -7.2693 H         1 <1>         0.1868 
     42 H16        -0.8561    8.1978   -9.3159 H         1 <1>         0.0260 
     43 H17         0.0670    9.6445   -8.8363 H         1 <1>         0.0260 
     44 H18         0.2444    8.9612  -10.4787 H         1 <1>         0.0260 
     45 H19        -0.2871   11.1570  -11.6025 H         1 <1>         0.0260 
     46 H20        -0.3595   11.9043   -9.9818 H         1 <1>         0.0260 
     47 H21        -1.7303   12.0865  -11.1069 H         1 <1>         0.0260 
     48 H22        -1.8222    9.2456  -12.1807 H         1 <1>         0.0260 
     49 H23        -3.2785   10.0903  -11.5803 H         1 <1>         0.0260 
     50 H24        -2.8638    8.4652  -10.9760 H         1 <1>         0.0260 
     51 H25        -3.3748    8.7592   -2.2610 H         1 <1>         0.0329 
     52 H26        -1.9885    8.2967   -3.2928 H         1 <1>         0.0329 
@<TRIPOS>BOND
     1    8    1 1    
     2    2    1 1    
     3    3    2 ar   
     4    7    3 1    
     5    3    4 ar   
     6    4    5 ar   
     7    5    6 ar   
     8    7    8 2    
     9    9    6 ar   
    10    2    9 ar   
    11   10    7 1    
    12   10   11 1    
    13   11   12 2    
    14   11   13 1    
    15   14   31 1    
    16   31   15 1    
    17   15   16 1    
    18   16   17 1    
    19   17   18 am   
    20   18   19 2    
    21   18   20 1    
    22   20   21 1    
    23   21   22 1    
    24   21   23 1    
    25   21   24 1    
    26   25   14 1    
    27   10   25 1    
    28    1   26 1    
    29    4   27 1    
    30    5   28 1    
    31    6   29 1    
    32    8   30 1    
    33    9   32 1    
    34   10   33 1    
    35   13   34 1    
    36   14   35 1    
    37   14   36 1    
    38   15   37 1    
    39   15   38 1    
    40   16   39 1    
    41   16   40 1    
    42   17   41 1    
    43   22   42 1    
    44   22   43 1    
    45   22   44 1    
    46   23   45 1    
    47   23   46 1    
    48   23   47 1    
    49   24   48 1    
    50   24   49 1    
    51   24   50 1    
    52   25   51 1    
    53   25   52 1    
@<TRIPOS>SUBSTRUCTURE
     1 ****        7 TEMP              0 ****  ****    0 ROOT 
@<TRIPOS>NORMAL
@<TRIPOS>FF_PBC
FORCE_FIELD_SETUP_FEATURE Force Field Setup information
v1.0  0 0.000000 0.000000 0.000000 0.000000 0.000000 0.000000 NONE 0 0 0 0 1 0 0 0 0 0 0 0 0
@<TRIPOS>RENDERING_ATTRS
ANTIALIASED_LINES 
1,2,3,4,5,6,7,8,9,10,11,12,13,15,16,17,18,19,20,21,22,23,24,31
