#	Name:			PISM01172
#	Creating user name:	baoopengkun
#	Creation time:		Tue Dec 18 16:52:57 2018

#	Modifying user name:	baoopengkun
#	Modification time:	Tue Dec 18 16:55:20 2018

@<TRIPOS>MOLECULE
PISM01172
   56    58     1     1     0
SMALL
GAST_HUCK


@<TRIPOS>ATOM
      1 O1          6.2036   29.6509  -12.0768 O.2       1 <1>        -0.3840 
      2 C2          5.7448   28.9216  -11.2145 C.2       1 <1>         0.2383 
      3 S3          6.0437   27.1750  -11.0313 S.3       1 <1>        -0.0304 
      4 C4          4.5577   27.0475   -9.9994 C.3       1 <1>         0.0423 
      5 C5          4.4863   28.3958   -9.2423 C.3       1 <1>         0.1077 
      6 N6          4.9163   29.3571  -10.2484 N.am      1 <1>        -0.2686 
      7 C7          5.4310   28.5090   -8.0047 C.3       1 <1>         0.1944 
      8 O8          6.7847   28.3140   -8.4643 O.3       1 <1>        -0.3432 
      9 C9          7.7646   28.3573   -7.4088 C.3       1 <1>         0.0648 
     10 C10         7.5368   27.1334   -6.4839 C.3       1 <1>         0.0042 
     11 C11         6.1802   26.4275   -6.7416 C.3       1 <1>         0.0924 
     12 C12         5.0826   27.5100   -6.8573 C.3       1 <1>         0.0341 
     13 O13         5.3647   29.8637   -7.5207 O.3       1 <1>        -0.3627 
     14 O14         5.9049   25.5654   -5.6123 O.3       1 <1>        -0.2831 
     15 C15         6.7712   24.5459   -5.5020 C.2       1 <1>         0.2158 
     16 O16         7.3821   24.1454   -6.4795 O.2       1 <1>        -0.3872 
     17 C17         6.9977   23.9169   -4.1858 C.2       1 <1>        -0.0014 
     18 C18         8.1750   23.4446   -3.7373 C.2       1 <1>        -0.0413 
     19 C19         8.3060   22.8262   -2.3626 C.3       1 <1>        -0.0186 
     20 C20         9.4528   23.5132   -4.5574 C.3       1 <1>        -0.0007 
     21 C21        10.0136   24.9670   -4.6246 C.3       1 <1>        -0.0214 
     22 C22        10.8195   25.2142   -5.8848 C.2       1 <1>        -0.0956 
     23 C23        11.1005   26.4025   -6.4473 C.2       1 <1>        -0.0956 
     24 C24        10.7103   27.7772   -5.9399 C.3       1 <1>        -0.0273 
     25 C25        11.9271   28.3151   -5.1372 C.3       1 <1>        -0.0557 
     26 C26         9.1850   28.3627   -8.0491 C.3       1 <1>        -0.0246 
     27 C27        10.3522   28.7673   -7.0936 C.3       1 <1>        -0.0415 
     28 H1          4.5669   26.1589   -9.3552 H         1 <1>         0.0428 
     29 H2          3.7038   26.9679  -10.6910 H         1 <1>         0.0428 
     30 H3          3.4477   28.5905   -8.9252 H         1 <1>         0.0619 
     31 H4          4.6659   30.3234  -10.1812 H         1 <1>         0.1864 
     32 H5          7.6501   29.3034   -6.8515 H         1 <1>         0.0598 
     33 H6          7.5581   27.4528   -5.4297 H         1 <1>         0.0318 
     34 H7          8.3294   26.3941   -6.6532 H         1 <1>         0.0318 
     35 H8          6.2136   25.8683   -7.6920 H         1 <1>         0.0648 
     36 H9          5.0523   28.0422   -5.8932 H         1 <1>         0.0346 
     37 H10         4.0989   27.0387   -7.0058 H         1 <1>         0.0346 
     38 H11         4.5014   30.1141   -7.2108 H         1 <1>         0.2128 
     39 H12         6.1138   23.8699   -3.5509 H         1 <1>         0.0294 
     40 H13         8.6214   21.7764   -2.4602 H         1 <1>         0.0472 
     41 H14         7.3655   22.8487   -1.7913 H         1 <1>         0.0472 
     42 H15         9.0679   23.3746   -1.7883 H         1 <1>         0.0472 
     43 H16         9.2472   23.1212   -5.5630 H         1 <1>         0.0527 
     44 H17        10.2295   22.8510   -4.1412 H         1 <1>         0.0527 
     45 H18        10.6534   25.1573   -3.7482 H         1 <1>         0.0420 
     46 H19         9.1684   25.6621   -4.5653 H         1 <1>         0.0420 
     47 H20        11.2234   24.3315   -6.3851 H         1 <1>         0.0452 
     48 H21        11.6965   26.3925   -7.3622 H         1 <1>         0.0453 
     49 H22         9.8777   27.7458   -5.2271 H         1 <1>         0.0421 
     50 H23        11.7107   29.3114   -4.7205 H         1 <1>         0.0252 
     51 H24        12.8162   28.3922   -5.7824 H         1 <1>         0.0252 
     52 H25        12.1624   27.6353   -4.3026 H         1 <1>         0.0252 
     53 H26         9.1515   29.1162   -8.8551 H         1 <1>         0.0292 
     54 H27         9.3940   27.3932   -8.5287 H         1 <1>         0.0292 
     55 H28        11.2548   28.8937   -7.7149 H         1 <1>         0.0288 
     56 H29        10.1161   29.7520   -6.6573 H         1 <1>         0.0288 
@<TRIPOS>BOND
     1    2    1 2    
     2    2    3 1    
     3    3    4 1    
     4    4    5 1    
     5    5    6 1    
     6    2    6 am   
     7    5    7 1    
     8    7    8 1    
     9    8    9 1    
    10    9   10 1    
    11   10   11 1    
    12   11   12 1    
    13    7   12 1    
    14    7   13 1    
    15   11   14 1    
    16   14   15 1    
    17   15   16 2    
    18   15   17 1    
    19   17   18 2    
    20   18   19 1    
    21   18   20 1    
    22   20   21 1    
    23   21   22 1    
    24   22   23 2    
    25   23   24 1    
    26   24   25 1    
    27    9   26 1    
    28   24   27 1    
    29   26   27 1    
    30    4   28 1    
    31    4   29 1    
    32    5   30 1    
    33    6   31 1    
    34    9   32 1    
    35   10   33 1    
    36   10   34 1    
    37   11   35 1    
    38   12   36 1    
    39   12   37 1    
    40   13   38 1    
    41   17   39 1    
    42   19   40 1    
    43   19   41 1    
    44   19   42 1    
    45   20   43 1    
    46   20   44 1    
    47   21   45 1    
    48   21   46 1    
    49   22   47 1    
    50   23   48 1    
    51   24   49 1    
    52   25   50 1    
    53   25   51 1    
    54   25   52 1    
    55   26   53 1    
    56   26   54 1    
    57   27   55 1    
    58   27   56 1    
@<TRIPOS>SUBSTRUCTURE
     1 ****        2 TEMP              0 ****  ****    0 ROOT 
@<TRIPOS>NORMAL
@<TRIPOS>FF_PBC
FORCE_FIELD_SETUP_FEATURE Force Field Setup information
v1.0  0 0.000000 0.000000 0.000000 0.000000 0.000000 0.000000 NONE 0 0 0 0 1 0 0 0 0 0 0 0 0
