#	Name:			PISM00412
#	Creating user name:	malab
#	Creation time:		Tue Apr 09 23:41:05 2019

#	Modifying user name:	malab
#	Modification time:	Tue Apr 09 23:53:24 2019

@<TRIPOS>MOLECULE
PISM00412
   42    42     1     2     0
SMALL
USER_CHARGES


@<TRIPOS>ATOM
      1 C1         -8.4105   -4.7746   -5.3244 C.3       1 <1>         0.0000 
      2 C2         -7.5007   -6.0187   -5.1437 C.3       1 <1>         0.0000 
      3 C3         -6.0568   -5.6063   -5.1002 C.2       1 <1>         0.0000 
      4 C4         -5.6443   -4.2324   -4.7299 C.2       1 <1>         0.0000 
      5 C5         -6.5646   -3.3411   -4.3139 C.2       1 <1>         0.0000 
      6 C6         -8.0424   -3.7102   -4.2428 C.3       1 <1>         0.0000 
      7 O7         -5.2166   -6.4463   -5.3809 O.2       1 <1>         0.0000 
      8 C8         -6.2143   -1.9317   -3.8732 C.3       1 <1>         0.0000 
      9 C9         -9.8993   -5.2170   -5.1876 C.3       1 <1>         0.0000 
     10 C10        -8.2065   -4.1756   -6.7518 C.3       1 <1>         0.0000 
     11 C11        -4.1752   -3.8762   -4.8365 C.3       1 <1>         0.0000 
     12 H1         -7.6601   -6.7155   -5.9820 H         1 <1>         0.0000 
     13 H2         -7.7282   -6.5602   -4.2129 H         1 <1>         0.0000 
     14 O14        -8.8969   -2.5791   -4.5147 O.3       1 <1>         0.0000 
     15 C15        -8.2812   -4.2520   -2.8472 C.2       1 <1>         0.0000 
     16 H3         -5.1419   -1.7337   -3.7529 H         1 <1>         0.0000 
     17 H4         -6.6757   -1.7332   -2.8941 H         1 <1>         0.0000 
     18 H5         -6.6025   -1.2120   -4.6093 H         1 <1>         0.0000 
     19 C19        -9.4023   -4.0461   -2.1434 C.2       1 <1>         0.0000 
     20 C20        -9.6021   -4.6022   -0.7893 C.2       1 <1>         0.0000 
     21 C21       -10.0987   -3.8628    0.2144 C.2       1 <1>         0.0000 
     22 C22       -10.4615   -2.4316    0.1556 C.2       1 <1>         0.0000 
     23 C23        -9.2447   -6.0514   -0.5475 C.3       1 <1>         0.0000 
     24 O24       -11.1092   -1.9526    1.0750 O.2       1 <1>         0.0000 
     25 O25       -10.0730   -1.6776   -0.8791 O.3       1 <1>         0.0000 
     26 H6        -10.1566   -5.9404   -5.9764 H         1 <1>         0.0000 
     27 H7        -10.5761   -4.3544   -5.2816 H         1 <1>         0.0000 
     28 H8        -10.0897   -5.7007   -4.2182 H         1 <1>         0.0000 
     29 H9         -7.1722   -3.8381   -6.9114 H         1 <1>         0.0000 
     30 H10        -8.8722   -3.3148   -6.9153 H         1 <1>         0.0000 
     31 H11        -8.4366   -4.9267   -7.5229 H         1 <1>         0.0000 
     32 H12        -8.8537   -1.8774   -3.8754 H         1 <1>         0.0000 
     33 H13        -7.4904   -4.8482   -2.3898 H         1 <1>         0.0000 
     34 H14       -10.2177   -3.4604   -2.5654 H         1 <1>         0.0000 
     35 H15       -10.2508   -4.3427    1.1821 H         1 <1>         0.0000 
     36 H16        -9.1662   -6.6035   -1.4967 H         1 <1>         0.0000 
     37 H17       -10.0105   -6.5486    0.0674 H         1 <1>         0.0000 
     38 H18        -8.2776   -6.1059   -0.0255 H         1 <1>         0.0000 
     39 H19       -10.3536   -0.7704   -0.8193 H         1 <1>         0.0000 
     40 H20        -3.5787   -4.6718   -5.3058 H         1 <1>         0.0000 
     41 H21        -3.7589   -3.6989   -3.8334 H         1 <1>         0.0000 
     42 H22        -4.0471   -2.9755   -5.4558 H         1 <1>         0.0000 
@<TRIPOS>BOND
     1    2    1 1    
     2    2    3 1    
     3    3    4 1    
     4    4    5 2    
     5    5    6 1    
     6    1    6 1    
     7    3    7 2    
     8    5    8 1    
     9    1    9 1    
    10    1   10 1    
    11    4   11 1    
    12    2   12 1    
    13    2   13 1    
    14    6   14 1    
    15    6   15 1    
    16    8   16 1    
    17    8   17 1    
    18    8   18 1    
    19   15   19 2    
    20   19   20 1    
    21   20   21 2    
    22   21   22 1    
    23   20   23 1    
    24   22   24 2    
    25   22   25 1    
    26    9   26 1    
    27    9   27 1    
    28    9   28 1    
    29   10   29 1    
    30   10   30 1    
    31   10   31 1    
    32   14   32 1    
    33   15   33 1    
    34   19   34 1    
    35   21   35 1    
    36   23   36 1    
    37   23   37 1    
    38   23   38 1    
    39   25   39 1    
    40   11   40 1    
    41   11   41 1    
    42   11   42 1    
@<TRIPOS>SUBSTRUCTURE
     1 ****        2 TEMP              0 ****  ****    0 ROOT 
@<TRIPOS>NORMAL
@<TRIPOS>FF_PBC
FORCE_FIELD_SETUP_FEATURE Force Field Setup information
v1.0  0 0.000000 0.000000 0.000000 0.000000 0.000000 0.000000 NONE 0 0 0 0 0 0 0 0 0 0 0 0 0
@<TRIPOS>RENDERING_ATTRS
ANTIALIASED_LINES 
*
