#	Name:			PISM00729
#	Creating user name:	baoopengkun
#	Creation time:		Sun Jan 20 21:58:07 2019

#	Modifying user name:	baoopengkun
#	Modification time:	Sun Jan 20 22:12:39 2019

@<TRIPOS>MOLECULE
PISM00729
   84    87     1     1     0
SMALL
GAST_HUCK


@<TRIPOS>ATOM
      1 C1         -5.3097    6.6237   -0.0617 C.3       1 <1>        -0.0163 
      2 C2         -6.4682    5.6109    0.1743 C.3       1 <1>         0.0819 
      3 C3         -6.1032    4.6026    1.2971 C.3       1 <1>         0.0835 
      4 C4         -5.7366    5.3571    2.6045 C.3       1 <1>        -0.0028 
      5 C5         -4.5464    6.3185    2.3221 C.3       1 <1>         0.0681 
      6 C6         -4.8639    7.3935    1.2240 C.3       1 <1>        -0.0055 
      7 C7         -3.5919    8.2986    0.9594 C.3       1 <1>        -0.0276 
      8 C8         -2.2340    7.5316    1.0756 C.3       1 <1>        -0.0063 
      9 C9         -1.8682    7.2694    2.5784 C.3       1 <1>         0.0801 
     10 O10        -2.8385    7.6000    3.6013 O.3       1 <1>        -0.2763 
     11 C11        -4.0482    7.0136    3.5630 C.2       1 <1>         0.2374 
     12 O12        -4.7579    7.0717    4.5515 O.2       1 <1>        -0.3701 
     13 C13        -3.6221    9.1286   -0.3611 C.3       1 <1>        -0.0487 
     14 C14        -2.4985   10.2173   -0.3922 C.3       1 <1>        -0.0468 
     15 C15        -1.1068    9.7504    0.1674 C.3       1 <1>        -0.0257 
     16 C16        -1.1207    8.1978    0.1930 C.3       1 <1>        -0.0298 
     17 C17         0.3537    7.7575    0.3665 C.3       1 <1>        -0.0491 
     18 C18         1.1506    8.8975   -0.3340 C.3       1 <1>        -0.0491 
     19 C19         0.1241    9.9878   -0.7825 C.3       1 <1>        -0.0304 
     20 O20        -6.7410    4.8719   -1.0326 O.3       1 <1>        -0.3892 
     21 O21        -4.9877    3.7984    0.8623 O.3       1 <1>        -0.3891 
     22 C22         5.1588   12.6046   -1.1765 C.3       1 <1>         0.0912 
     23 C23        -6.0246    8.3360    1.7043 C.3       1 <1>        -0.0568 
     24 C24        -0.8275   10.3693    1.5753 C.3       1 <1>        -0.0590 
     25 C25         0.7609   11.4206   -0.8823 C.3       1 <1>        -0.0120 
     26 C26         1.9862   11.4243   -1.8617 C.3       1 <1>         0.0842 
     27 C27         2.6632   12.8320   -2.0125 C.3       1 <1>         0.0865 
     28 C28         4.1838   12.7921   -2.4040 C.3       1 <1>         0.0154 
     29 C29         6.5591   12.0635   -1.6074 C.3       1 <1>         0.0730 
     30 O30         7.3532   13.0541   -2.2888 O.3       1 <1>        -0.3922 
     31 C31         5.3788   13.9092   -0.3508 C.3       1 <1>        -0.0336 
     32 C32        -0.2846   12.4908   -1.3115 C.3       1 <1>        -0.0597 
     33 O33         1.5408   10.9333   -3.1439 O.3       1 <1>        -0.3890 
     34 O34         1.8946   13.6159   -2.9457 O.3       1 <1>        -0.3889 
     35 C35         4.5505   14.0414   -3.2629 C.3       1 <1>        -0.0573 
     36 O36         4.6700   11.5905   -0.2747 O.3       1 <1>        -0.3862 
     37 H1         -5.6481    7.3355   -0.8298 H         1 <1>         0.0298 
     38 H2         -4.4605    6.0595   -0.4755 H         1 <1>         0.0298 
     39 H3         -7.3997    6.1297    0.4548 H         1 <1>         0.0619 
     40 H4         -6.9771    3.9467    1.4651 H         1 <1>         0.0621 
     41 H5         -5.4364    4.6182    3.3666 H         1 <1>         0.0319 
     42 H6         -6.6131    5.8795    3.0115 H         1 <1>         0.0319 
     43 H7         -3.7645    5.6157    2.0116 H         1 <1>         0.0560 
     44 H8         -3.5792    9.0688    1.7437 H         1 <1>         0.0311 
     45 H9         -2.3482    6.5480    0.5910 H         1 <1>         0.0332 
     46 H10        -1.0465    7.9245    2.8858 H         1 <1>         0.0616 
     47 H11        -1.5098    6.2369    2.7271 H         1 <1>         0.0616 
     48 H12        -4.5818    9.6495   -0.4973 H         1 <1>         0.0268 
     49 H13        -3.5175    8.4483   -1.2203 H         1 <1>         0.0268 
     50 H14        -2.8588   11.0762    0.1972 H         1 <1>         0.0271 
     51 H15        -2.4121   10.5542   -1.4372 H         1 <1>         0.0271 
     52 H16        -1.3306    7.8956   -0.8517 H         1 <1>         0.0310 
     53 H17         0.5388    6.7695   -0.0900 H         1 <1>         0.0268 
     54 H18         0.6611    7.6878    1.4188 H         1 <1>         0.0268 
     55 H19         1.7106    8.5032   -1.1990 H         1 <1>         0.0268 
     56 H20         1.8813    9.3212    0.3755 H         1 <1>         0.0268 
     57 H21        -0.1985    9.7270   -1.8055 H         1 <1>         0.0310 
     58 H22        -6.9920    5.4209   -1.7689 H         1 <1>         0.2099 
     59 H23        -4.7547    3.1081    1.4755 H         1 <1>         0.2099 
     60 H24        -6.2656    9.0930    0.9472 H         1 <1>         0.0237 
     61 H25        -5.7445    8.8678    2.6260 H         1 <1>         0.0237 
     62 H26        -6.9667    7.8234    1.9211 H         1 <1>         0.0237 
     63 H27         0.1226   10.0201    2.0020 H         1 <1>         0.0235 
     64 H28        -1.6241   10.1419    2.2930 H         1 <1>         0.0235 
     65 H29        -0.7768   11.4648    1.5158 H         1 <1>         0.0235 
     66 H30         1.1440   11.7024    0.1121 H         1 <1>         0.0327 
     67 H31         2.7303   10.7107   -1.4797 H         1 <1>         0.0622 
     68 H32         2.5825   13.3887   -1.0693 H         1 <1>         0.0623 
     69 H33         4.3127   11.9247   -3.0700 H         1 <1>         0.0352 
     70 H34         6.4340   11.1656   -2.2345 H         1 <1>         0.0586 
     71 H35         7.1041   11.7607   -0.6960 H         1 <1>         0.0586 
     72 H36         8.2191   12.7447   -2.5405 H         1 <1>         0.2095 
     73 H37         5.9651   13.6798    0.5524 H         1 <1>         0.0258 
     74 H38         4.4294   14.3565   -0.0265 H         1 <1>         0.0258 
     75 H39         5.9360   14.6625   -0.9274 H         1 <1>         0.0258 
     76 H40        -0.6469   12.2828   -2.3297 H         1 <1>         0.0233 
     77 H41         0.1365   13.5047   -1.2890 H         1 <1>         0.0233 
     78 H42        -1.1411   12.5163   -0.6294 H         1 <1>         0.0233 
     79 H43         2.2423   10.7814   -3.7698 H         1 <1>         0.2099 
     80 H44         1.7786   13.1790   -3.7831 H         1 <1>         0.2099 
     81 H45         5.6137   14.0631   -3.5315 H         1 <1>         0.0234 
     82 H46         4.3075   14.9669   -2.7203 H         1 <1>         0.0234 
     83 H47         3.9935   14.0498   -4.2122 H         1 <1>         0.0234 
     84 H48         3.9301   11.8572    0.2598 H         1 <1>         0.2103 
@<TRIPOS>BOND
     1    2    1 1    
     2    2    3 1    
     3    3    4 1    
     4    4    5 1    
     5    6    5 1    
     6    1    6 1    
     7    6    7 1    
     8    7    8 1    
     9    8    9 1    
    10   10    9 1    
    11   11   10 1    
    12   11   12 2    
    13    5   11 1    
    14    7   13 1    
    15   13   14 1    
    16   14   15 1    
    17   16   15 1    
    18    8   16 1    
    19   16   17 1    
    20   17   18 1    
    21   19   18 1    
    22   15   19 1    
    23    2   20 1    
    24    3   21 1    
    25   28   22 1    
    26    6   23 1    
    27   15   24 1    
    28   19   25 1    
    29   25   26 1    
    30   26   27 1    
    31   27   28 1    
    32   22   29 1    
    33   29   30 1    
    34   22   31 1    
    35   25   32 1    
    36   26   33 1    
    37   27   34 1    
    38   28   35 1    
    39   22   36 1    
    40    1   37 1    
    41    1   38 1    
    42    2   39 1    
    43    3   40 1    
    44    4   41 1    
    45    4   42 1    
    46    5   43 1    
    47    7   44 1    
    48    8   45 1    
    49    9   46 1    
    50    9   47 1    
    51   13   48 1    
    52   13   49 1    
    53   14   50 1    
    54   14   51 1    
    55   16   52 1    
    56   17   53 1    
    57   17   54 1    
    58   18   55 1    
    59   18   56 1    
    60   19   57 1    
    61   20   58 1    
    62   21   59 1    
    63   23   60 1    
    64   23   61 1    
    65   23   62 1    
    66   24   63 1    
    67   24   64 1    
    68   24   65 1    
    69   25   66 1    
    70   26   67 1    
    71   27   68 1    
    72   28   69 1    
    73   29   70 1    
    74   29   71 1    
    75   30   72 1    
    76   31   73 1    
    77   31   74 1    
    78   31   75 1    
    79   32   76 1    
    80   32   77 1    
    81   32   78 1    
    82   33   79 1    
    83   34   80 1    
    84   35   81 1    
    85   35   82 1    
    86   35   83 1    
    87   36   84 1    
@<TRIPOS>SUBSTRUCTURE
     1 ****        2 TEMP              0 ****  ****    0 ROOT 
@<TRIPOS>NORMAL
@<TRIPOS>FF_PBC
FORCE_FIELD_SETUP_FEATURE Force Field Setup information
v1.0  0 0.000000 0.000000 0.000000 0.000000 0.000000 0.000000 NONE 0 0 0 0 1 0 0 0 0 0 0 0 0
