#	Name:			PISM00123
#	Creating user name:	baoopengkun
#	Creation time:		Mon Dec 17 14:58:09 2018

#	Modifying user name:	baoopengkun
#	Modification time:	Mon Dec 17 15:00:53 2018

@<TRIPOS>MOLECULE
PISM00123
   35    36     1     1     0
SMALL
GAST_HUCK


@<TRIPOS>ATOM
      1 F1         36.5490    0.1441   15.6699 F         1 <1>        -0.2329 
      2 C2         36.2368    0.8243   14.5342 C.3       1 <1>         0.3665 
      3 F3         37.3556    1.4261   14.0519 F         1 <1>        -0.2329 
      4 F4         35.7679   -0.0564   13.6098 F         1 <1>        -0.2329 
      5 C5         35.1885    1.8983   14.8365 C.ar      1 <1>         0.0566 
      6 C6         35.1862    2.5610   16.0674 C.ar      1 <1>        -0.0112 
      7 C7         34.2199    3.5347   16.3321 C.ar      1 <1>         0.1204 
      8 C8         33.2584    3.8253   15.3555 C.ar      1 <1>         0.1889 
      9 N9         33.2794    3.1662   14.1780 N.ar      1 <1>        -0.2376 
     10 C10        34.2154    2.2380   13.8917 C.ar      1 <1>         0.0329 
     11 Cl11       34.2396    4.3705   17.8733 Cl        1 <1>        -0.0600 
     12 N12        32.2916    4.7569   15.5433 N.pl3     1 <1>        -0.2234 
     13 C13        31.5662    5.2197   14.4934 C.ar      1 <1>         0.1704 
     14 C14        30.1701    5.3322   14.5951 C.ar      1 <1>         0.1859 
     15 C15        29.4142    5.4975   13.4243 C.ar      1 <1>         0.0744 
     16 C16        30.0510    5.7247   12.1987 C.ar      1 <1>         0.0130 
     17 C17        31.4468    5.7828   12.1457 C.ar      1 <1>        -0.0282 
     18 C18        32.2081    5.5792   13.2995 C.ar      1 <1>         0.1714 
     19 N19        33.5538    5.7454   13.2518 N.pl3     1 <1>         0.0373 
     20 O20        34.1689    6.0790   14.2425 O.2       1 <1>        -0.1269 
     21 O21        34.2521    5.5589   12.0481 O.3       1 <1>        -0.2398 
     22 N22        29.5760    5.2757   15.8173 N.pl3     1 <1>         0.0380 
     23 O23        30.1778    4.8426   16.7766 O.2       1 <1>        -0.1267 
     24 O24        28.2785    5.7631   16.0300 O.3       1 <1>        -0.2397 
     25 C25        29.2103    5.9110   10.9290 C.3       1 <1>         0.3448 
     26 F26        28.3843    6.9780   11.0938 F         1 <1>        -0.2448 
     27 F27        28.4680    4.7927   10.7149 F         1 <1>        -0.2448 
     28 F28        29.9891    6.1307    9.8360 F         1 <1>        -0.2448 
     29 Cl29       27.6609    5.4067   13.4556 Cl        1 <1>        -0.0706 
     30 H1         35.9335    2.3250   16.8181 H         1 <1>         0.0903 
     31 H2         34.2021    1.7599   12.9175 H         1 <1>         0.1051 
     32 H3         32.0356    5.0481   16.5004 H         1 <1>         0.2378 
     33 H4         31.9467    5.9931   11.2064 H         1 <1>         0.0585 
     34 H5         34.8293    6.2939   11.8694 H         1 <1>         0.2523 
     35 H6         28.2789    6.4856   16.6489 H         1 <1>         0.2523 
@<TRIPOS>BOND
     1    2    1 1    
     2    2    3 1    
     3    2    4 1    
     4    2    5 1    
     5    5    6 ar   
     6    6    7 ar   
     7    7    8 ar   
     8    8    9 ar   
     9    9   10 ar   
    10    5   10 ar   
    11    7   11 1    
    12    8   12 1    
    13   12   13 1    
    14   13   14 ar   
    15   14   15 ar   
    16   15   16 ar   
    17   16   17 ar   
    18   17   18 ar   
    19   13   18 ar   
    20   18   19 1    
    21   19   20 2    
    22   19   21 1    
    23   14   22 1    
    24   22   23 2    
    25   22   24 1    
    26   16   25 1    
    27   25   26 1    
    28   25   27 1    
    29   25   28 1    
    30   15   29 1    
    31    6   30 1    
    32   10   31 1    
    33   12   32 1    
    34   17   33 1    
    35   21   34 1    
    36   24   35 1    
@<TRIPOS>SUBSTRUCTURE
     1 ****        2 TEMP              0 ****  ****    0 ROOT 
@<TRIPOS>NORMAL
@<TRIPOS>FF_PBC
FORCE_FIELD_SETUP_FEATURE Force Field Setup information
v1.0  0 0.000000 0.000000 0.000000 0.000000 0.000000 0.000000 NONE 0 0 0 0 1 0 0 0 0 0 0 0 0
