#	Name:			PISM00124
#	Creating user name:	baoopengkun
#	Creation time:		Wed Dec 19 12:15:18 2018

#	Modifying user name:	baoopengkun
#	Modification time:	Wed Dec 19 12:16:39 2018

@<TRIPOS>MOLECULE
PISM00124
   29    30     1     1     0
SMALL
USER_CHARGES


@<TRIPOS>ATOM
      1 C1         24.9565   21.6148  -49.2785 C.ar      1 <1>         0.0000 
      2 C2         26.1332   22.2546  -48.8809 C.ar      1 <1>         0.0000 
      3 C3         26.2284   22.7991  -47.5989 C.ar      1 <1>         0.0000 
      4 C4         25.1566   22.6820  -46.7098 C.ar      1 <1>         0.0000 
      5 C5         23.9879   22.0193  -47.0989 C.ar      1 <1>         0.0000 
      6 C6         23.8746   21.5045  -48.3965 C.ar      1 <1>         0.0000 
      7 Cl7        22.6865   21.8386  -45.9359 Cl        1 <1>         0.0000 
      8 C8         22.5930   20.8062  -48.8682 C.3       1 <1>         0.0000 
      9 O9         21.4151   21.4665  -48.3792 O.3       1 <1>         0.0000 
     10 C10        20.2479   20.8130  -48.7670 C.ar      1 <1>         0.0000 
     11 C11        19.8457   19.6453  -48.1151 C.ar      1 <1>         0.0000 
     12 C12        18.6813   18.9845  -48.5185 C.ar      1 <1>         0.0000 
     13 C13        17.9145   19.4748  -49.5829 C.ar      1 <1>         0.0000 
     14 C14        18.3095   20.6669  -50.2065 C.ar      1 <1>         0.0000 
     15 C15        19.4798   21.3233  -49.8161 C.ar      1 <1>         0.0000 
     16 N16        16.8121   18.8021  -50.0034 N.pl3     1 <1>         0.0000 
     17 O17        16.1634   19.2015  -50.9492 O.2       1 <1>         0.0000 
     18 O18        16.4003   17.6231  -49.3622 O.3       1 <1>         0.0000 
     19 H1         24.8914   21.1993  -50.2786 H         1 <1>         0.0000 
     20 H2         26.9690   22.3263  -49.5695 H         1 <1>         0.0000 
     21 H3         27.1375   23.3087  -47.2937 H         1 <1>         0.0000 
     22 H4         25.2328   23.1044  -45.7129 H         1 <1>         0.0000 
     23 H5         22.6498   19.7695  -48.4990 H         1 <1>         0.0000 
     24 H6         22.5395   20.7947  -49.9696 H         1 <1>         0.0000 
     25 H7         20.4414   19.2527  -47.2966 H         1 <1>         0.0000 
     26 H8         18.3862   18.0837  -47.9921 H         1 <1>         0.0000 
     27 H9         17.7141   21.0972  -51.0036 H         1 <1>         0.0000 
     28 H10        19.7980   22.2274  -50.3254 H         1 <1>         0.0000 
     29 H11        15.5457   17.7405  -48.9644 H         1 <1>         0.0000 
@<TRIPOS>BOND
     1    2    1 ar   
     2    2    3 ar   
     3    3    4 ar   
     4    4    5 ar   
     5    5    6 ar   
     6    1    6 ar   
     7    5    7 1    
     8    6    8 1    
     9    8    9 1    
    10    9   10 1    
    11   10   11 ar   
    12   11   12 ar   
    13   12   13 ar   
    14   13   14 ar   
    15   14   15 ar   
    16   10   15 ar   
    17   13   16 1    
    18   16   17 2    
    19   16   18 1    
    20    1   19 1    
    21    2   20 1    
    22    3   21 1    
    23    4   22 1    
    24    8   23 1    
    25    8   24 1    
    26   11   25 1    
    27   12   26 1    
    28   14   27 1    
    29   15   28 1    
    30   18   29 1    
@<TRIPOS>SUBSTRUCTURE
     1 ****        2 TEMP              0 ****  ****    0 ROOT 
@<TRIPOS>NORMAL
@<TRIPOS>FF_PBC
FORCE_FIELD_SETUP_FEATURE Force Field Setup information
v1.0  0 0.000000 0.000000 0.000000 0.000000 0.000000 0.000000 NONE 0 0 0 0 0 0 0 0 0 0 0 0 0
