#	Name:			PISM00901
#	Creating user name:	baoopengkun
#	Creation time:		Fri Dec 14 10:18:06 2018

#	Modifying user name:	baoopengkun
#	Modification time:	Fri Dec 14 10:23:29 2018

@<TRIPOS>MOLECULE
PISM00901
   31    32     1     1     0
SMALL
GAST_HUCK


@<TRIPOS>ATOM
      1 C1         14.8213    8.3290   -3.9083 C.ar      1 <1>        -0.0397 
      2 C2         15.4324    7.7820   -5.0400 C.ar      1 <1>        -0.0722 
      3 C3         14.8351    7.9276   -6.2955 C.ar      1 <1>        -0.0740 
      4 C4         13.6230    8.6133   -6.4168 C.ar      1 <1>        -0.0722 
      5 C5         13.0135    9.1597   -5.2836 C.ar      1 <1>        -0.0397 
      6 C6         13.6223    9.0374   -4.0305 C.ar      1 <1>         0.0649 
      7 N7         13.0577    9.6030   -2.9364 N.pl3     1 <1>        -0.2193 
      8 C8         12.5804    8.7524   -1.8466 C.3       1 <1>         0.0386 
      9 C9         12.9599   10.9037   -2.8415 C.2       1 <1>         0.2702 
     10 O10        12.4584   11.4335   -1.8636 O.2       1 <1>        -0.3658 
     11 S11        13.5817   11.9614   -4.1365 S.3       1 <1>         0.0253 
     12 C12        15.1599   12.2442   -3.2838 C.3       1 <1>         0.1804 
     13 C13        16.0944   12.8873   -4.2794 C.2       1 <1>        -0.0208 
     14 C14        17.0923   12.0583   -4.5816 C.2       1 <1>         0.0274 
     15 C15        16.8266   10.8841   -3.7580 C.2       1 <1>         0.2478 
     16 O16        15.7580   10.9681   -2.9758 O.3       1 <1>        -0.2504 
     17 O17        17.5373    9.8938   -3.7748 O.2       1 <1>        -0.3691 
     18 C18        18.2369   12.2817   -5.5314 C.3       1 <1>        -0.0324 
     19 H1         15.2827    8.2112   -2.9331 H         1 <1>         0.0529 
     20 H2         16.3723    7.2471   -4.9428 H         1 <1>         0.0586 
     21 H3         15.3127    7.5078   -7.1756 H         1 <1>         0.0514 
     22 H4         13.1550    8.7206   -7.3905 H         1 <1>         0.0586 
     23 H5         12.0647    9.6784   -5.3755 H         1 <1>         0.0529 
     24 H6         12.6659    7.6816   -2.0907 H         1 <1>         0.0523 
     25 H7         11.5218    8.9710   -1.6358 H         1 <1>         0.0523 
     26 H8         13.1732    8.9511   -0.9402 H         1 <1>         0.0523 
     27 H9         15.0186   12.8479   -2.3732 H         1 <1>         0.0972 
     28 H10        15.9644   13.8849   -4.6979 H         1 <1>         0.0687 
     29 H11        17.9228   12.0097   -6.5500 H         1 <1>         0.0347 
     30 H12        19.0942   11.6556   -5.2417 H         1 <1>         0.0347 
     31 H13        18.5463   13.3376   -5.5182 H         1 <1>         0.0347 
@<TRIPOS>BOND
     1    2    1 ar   
     2    2    3 ar   
     3    3    4 ar   
     4    4    5 ar   
     5    5    6 ar   
     6    1    6 ar   
     7    6    7 1    
     8    7    8 1    
     9    7    9 1    
    10    9   10 2    
    11    9   11 1    
    12   11   12 1    
    13   12   13 1    
    14   13   14 2    
    15   14   15 1    
    16   15   16 1    
    17   12   16 1    
    18   15   17 2    
    19   14   18 1    
    20    1   19 1    
    21    2   20 1    
    22    3   21 1    
    23    4   22 1    
    24    5   23 1    
    25    8   24 1    
    26    8   25 1    
    27    8   26 1    
    28   12   27 1    
    29   13   28 1    
    30   18   29 1    
    31   18   30 1    
    32   18   31 1    
@<TRIPOS>SUBSTRUCTURE
     1 ****        2 TEMP              0 ****  ****    0 ROOT 
@<TRIPOS>NORMAL
@<TRIPOS>FF_PBC
FORCE_FIELD_SETUP_FEATURE Force Field Setup information
v1.0  0 0.000000 0.000000 0.000000 0.000000 0.000000 0.000000 NONE 0 0 0 0 1 0 0 0 0 0 0 0 0
