#	Name:			PISM00891.1
#	Creating user name:	baoopengkun
#	Creation time:		Fri Dec 14 09:54:22 2018

#	Modifying user name:	baoopengkun
#	Modification time:	Fri Dec 14 09:57:27 2018

@<TRIPOS>MOLECULE
PISM00891.1
   32    34     1     1     0
SMALL
GAST_HUCK


@<TRIPOS>ATOM
      1 C1         11.8388   10.0740   -7.2361 C.ar      1 <1>        -0.0667 
      2 C2         12.7172   10.7857   -8.0593 C.ar      1 <1>        -0.0680 
      3 C3         13.3374   11.9463   -7.5863 C.ar      1 <1>        -0.0554 
      4 C4         13.0868   12.3877   -6.2836 C.ar      1 <1>         0.0387 
      5 C5         12.2191   11.6683   -5.4574 C.ar      1 <1>         0.1153 
      6 C6         11.5858   10.5182   -5.9348 C.ar      1 <1>        -0.0269 
      7 C7         13.7277   13.6121   -5.7472 C.ar      1 <1>         0.0654 
      8 C8         15.1168   13.7567   -5.7432 C.ar      1 <1>        -0.0064 
      9 C9         15.6597   14.9131   -5.1787 C.ar      1 <1>         0.0252 
     10 N10        14.8421   15.8581   -4.6723 N.ar      1 <1>        -0.2681 
     11 C11        13.5032   15.6989   -4.6970 C.ar      1 <1>         0.0843 
     12 N12        12.9544   14.5937   -5.2404 N.ar      1 <1>        -0.2631 
     13 O13        11.9944   12.1035   -4.1539 O.3       1 <1>        -0.2652 
     14 C14        12.9238   11.5536   -3.2124 C.3       1 <1>         0.2374 
     15 C15        12.8931   12.4449   -1.9954 C.2       1 <1>        -0.0016 
     16 C16        14.0730   13.0389   -1.8232 C.2       1 <1>         0.0292 
     17 C17        14.8880   12.5043   -2.9068 C.2       1 <1>         0.2495 
     18 O18        14.2779   11.6389   -3.7050 O.3       1 <1>        -0.2310 
     19 O19        16.0555   12.8157   -3.0689 O.2       1 <1>        -0.3691 
     20 C20        14.4915   14.0201   -0.7632 C.3       1 <1>        -0.0323 
     21 H1         11.3533    9.1765   -7.6076 H         1 <1>         0.0620 
     22 H2         12.9173   10.4372   -9.0681 H         1 <1>         0.0536 
     23 H3         14.0102   12.5040   -8.2301 H         1 <1>         0.0627 
     24 H4         10.9012    9.9741   -5.2928 H         1 <1>         0.0553 
     25 H5         15.7588   12.9868   -6.1571 H         1 <1>         0.0760 
     26 H6         16.7344   15.0548   -5.1404 H         1 <1>         0.0922 
     27 H7         12.8627   16.4660   -4.2771 H         1 <1>         0.1119 
     28 H8         12.6773   10.5066   -2.9722 H         1 <1>         0.1203 
     29 H9         12.0191   12.5876   -1.3615 H         1 <1>         0.0705 
     30 H10        13.7494   14.0668    0.0479 H         1 <1>         0.0347 
     31 H11        14.5934   15.0175   -1.2164 H         1 <1>         0.0347 
     32 H12        15.4620   13.7163   -0.3436 H         1 <1>         0.0347 
@<TRIPOS>BOND
     1    2    1 ar   
     2    2    3 ar   
     3    3    4 ar   
     4    4    5 ar   
     5    5    6 ar   
     6    1    6 ar   
     7    4    7 1    
     8    7    8 ar   
     9    8    9 ar   
    10    9   10 ar   
    11   10   11 ar   
    12   11   12 ar   
    13    7   12 ar   
    14    5   13 1    
    15   13   14 1    
    16   14   15 1    
    17   15   16 2    
    18   16   17 1    
    19   17   18 1    
    20   14   18 1    
    21   17   19 2    
    22   16   20 1    
    23    1   21 1    
    24    2   22 1    
    25    3   23 1    
    26    6   24 1    
    27    8   25 1    
    28    9   26 1    
    29   11   27 1    
    30   14   28 1    
    31   15   29 1    
    32   20   30 1    
    33   20   31 1    
    34   20   32 1    
@<TRIPOS>SUBSTRUCTURE
     1 ****        2 TEMP              0 ****  ****    0 ROOT 
@<TRIPOS>NORMAL
@<TRIPOS>FF_PBC
FORCE_FIELD_SETUP_FEATURE Force Field Setup information
v1.0  0 0.000000 0.000000 0.000000 0.000000 0.000000 0.000000 NONE 0 0 0 0 1 0 0 0 0 0 0 0 0
