#	Name:			PISM00057
#	Creating user name:	baoopengkun
#	Creation time:		Thu Dec 27 12:37:20 2018

#	Modifying user name:	baoopengkun
#	Modification time:	Thu Dec 27 12:38:48 2018

@<TRIPOS>MOLECULE
PISM00057
   29    30     1     1     0
SMALL
GAST_HUCK


@<TRIPOS>ATOM
      1 Cl1         7.0183   -0.9363  -19.3929 Cl        1 <1>        -0.0665 
      2 C2          5.8232   -0.1400  -18.3900 C.ar      1 <1>         0.0456 
      3 C3          4.5478    0.1236  -18.8952 C.ar      1 <1>        -0.0421 
      4 C4          3.5870    0.7297  -18.0807 C.ar      1 <1>        -0.0405 
      5 C5          3.8911    1.0705  -16.7580 C.ar      1 <1>         0.0697 
      6 C6          5.1922    0.8710  -16.2791 C.ar      1 <1>         0.0616 
      7 C7          6.1431    0.2358  -17.0830 C.ar      1 <1>        -0.0282 
      8 Cl8         5.6658    1.4256  -14.6844 Cl        1 <1>        -0.0646 
      9 C9          2.7980    1.6532  -15.8865 C.2       1 <1>         0.2324 
     10 O10         2.0869    2.4998  -16.4019 O.2       1 <1>        -0.3656 
     11 N11         2.6194    1.2430  -14.6587 N.pl3     1 <1>        -0.2325 
     12 C12         1.6497    1.7521  -13.8573 C.ar      1 <1>         0.0864 
     13 C13         1.4179    3.1324  -13.7983 C.ar      1 <1>        -0.0307 
     14 C14         0.3647    3.6448  -13.0360 C.ar      1 <1>        -0.0580 
     15 C15        -0.4405    2.7812  -12.2902 C.ar      1 <1>         0.0062 
     16 C16        -0.1783    1.4091  -12.2993 C.ar      1 <1>        -0.0409 
     17 C17         0.8720    0.8936  -13.0675 C.ar      1 <1>         0.0861 
     18 C18         1.1626   -0.5925  -13.0422 C.2       1 <1>         0.2540 
     19 O19         2.2262   -1.0754  -13.6919 O.3       1 <1>        -0.2954 
     20 O20         0.4296   -1.3490  -12.4246 O.2       1 <1>        -0.3643 
     21 Br21       -1.8482    3.4535  -11.2909 Br        1 <1>        -0.0594 
     22 H1          4.3052   -0.1447  -19.9186 H         1 <1>         0.0636 
     23 H2          2.5968    0.9319  -18.4781 H         1 <1>         0.0670 
     24 H3          7.1359    0.0375  -16.6933 H         1 <1>         0.0641 
     25 H4          3.1919    0.4629  -14.3023 H         1 <1>         0.2134 
     26 H5          2.0597    3.8208  -14.3385 H         1 <1>         0.0550 
     27 H6          0.1732    4.7131  -13.0218 H         1 <1>         0.0649 
     28 H7         -0.7969    0.7452  -11.7042 H         1 <1>         0.0669 
     29 H8          2.2879   -2.0209  -13.5983 H         1 <1>         0.2519 
@<TRIPOS>BOND
     1    2    1 1    
     2    2    3 ar   
     3    3    4 ar   
     4    4    5 ar   
     5    5    6 ar   
     6    6    7 ar   
     7    2    7 ar   
     8    6    8 1    
     9    5    9 1    
    10    9   10 2    
    11    9   11 1    
    12   11   12 1    
    13   12   13 ar   
    14   13   14 ar   
    15   14   15 ar   
    16   15   16 ar   
    17   16   17 ar   
    18   12   17 ar   
    19   17   18 1    
    20   18   19 1    
    21   18   20 2    
    22   15   21 1    
    23    3   22 1    
    24    4   23 1    
    25    7   24 1    
    26   11   25 1    
    27   13   26 1    
    28   14   27 1    
    29   16   28 1    
    30   19   29 1    
@<TRIPOS>SUBSTRUCTURE
     1 ****        2 TEMP              0 ****  ****    0 ROOT 
@<TRIPOS>NORMAL
@<TRIPOS>FF_PBC
FORCE_FIELD_SETUP_FEATURE Force Field Setup information
v1.0  0 0.000000 0.000000 0.000000 0.000000 0.000000 0.000000 NONE 0 0 0 0 1 0 0 0 0 0 0 0 0
