#	Name:			PISM00221
#	Creating user name:	14062
#	Creation time:		Thu Apr 04 11:24:23 2019

#	Modifying user name:	14062
#	Modification time:	Thu Apr 04 11:28:41 2019

@<TRIPOS>MOLECULE
PISM00221
   15    14     1     1     0
SMALL
GAST_HUCK


@<TRIPOS>ATOM
      1 C1         -1.8742   -0.0421    0.0132 C.3       1 <1>         0.1188 
      2 C2         -0.3564   -0.0244   -0.0399 C.2       1 <1>         0.2493 
      3 O3          0.2235    0.2945   -1.0636 O.2       1 <1>        -0.3688 
      4 O4          0.3648   -0.3629    1.0335 O.3       1 <1>        -0.2915 
      5 C5         -2.4001   -1.4998    0.0663 C.3       1 <1>         0.0601 
      6 S6         -4.2256   -1.4509    0.0139 S.3       1 <1>         0.0562 
      7 N7         -4.3944   -2.3462    0.0445 N.2       1 <1>         0.0140 
      8 O8         -5.5424   -2.7503    0.0225 O.2       1 <1>        -0.1882 
      9 H1         -2.2317    0.3993   -0.9334 H         1 <1>         0.0727 
     10 N10        -2.4584    0.7781    1.1017 N.3       1 <1>        -0.3088 
     11 H3         -0.1404   -0.5915    1.8015 H         1 <1>         0.2540 
     12 H4         -2.0729   -1.9973    0.9930 H         1 <1>         0.0448 
     13 H5         -2.0168   -2.0699   -0.7966 H         1 <1>         0.0448 
     14 H2         -2.0228    1.7693    1.1136 H         1 <1>         0.1212 
     15 H6         -2.3385    0.3143    2.0704 H         1 <1>         0.1212 
@<TRIPOS>BOND
     1    2    1 1    
     2    2    3 2    
     3    2    4 1    
     4    1    5 1    
     5    5    6 1    
     6    6    7 1    
     7    7    8 2    
     8    1    9 1    
     9    1   10 1    
    10    4   11 1    
    11    5   12 1    
    12    5   13 1    
    13   10   14 1    
    14   10   15 1    
@<TRIPOS>SUBSTRUCTURE
     1 ****        2 TEMP              0 ****  ****    0 ROOT 
@<TRIPOS>NORMAL
@<TRIPOS>FF_PBC
FORCE_FIELD_SETUP_FEATURE Force Field Setup information
v1.0  0 0.000000 0.000000 0.000000 0.000000 0.000000 0.000000 NONE 0 0 0 0 1 0 0 0 0 0 0 0 0
