#	Name:			PISM00829
#	Creating user name:	baoopengkun
#	Creation time:		Sat Dec 15 02:53:22 2018

#	Modifying user name:	baoopengkun
#	Modification time:	Sat Dec 15 02:57:27 2018

@<TRIPOS>MOLECULE
PISM00829
   25    26     1     1     0
SMALL
GAST_HUCK


@<TRIPOS>ATOM
      1 Br1        -0.0617   23.2187  -52.0946 Br        1 <1>        -0.0600 
      2 C2         -0.2023   21.6222  -51.1655 C.ar      1 <1>         0.0012 
      3 C3         -0.4811   20.4362  -51.8514 C.ar      1 <1>        -0.0611 
      4 C4         -0.5790   19.2307  -51.1504 C.ar      1 <1>        -0.0298 
      5 C5         -0.3923   19.2091  -49.7659 C.ar      1 <1>         0.1005 
      6 C6         -0.1309   20.3972  -49.0776 C.ar      1 <1>        -0.0298 
      7 C7         -0.0303   21.6028  -49.7782 C.ar      1 <1>        -0.0611 
      8 O8         -0.4679   18.0009  -49.0760 O.3       1 <1>        -0.2763 
      9 C9          0.8111   17.4549  -48.7280 C.3       1 <1>         0.1932 
     10 C10         1.6128   17.0864  -49.9531 C.2       1 <1>        -0.0119 
     11 C11         1.8164   15.7689  -50.0370 C.2       1 <1>         0.0164 
     12 C12         1.1660   15.1624  -48.8735 C.2       1 <1>         0.1910 
     13 N13         0.6054   16.1392  -48.1511 N.am      1 <1>        -0.2486 
     14 C14         2.5667   15.0464  -51.1226 C.3       1 <1>        -0.0334 
     15 O15         1.1460   13.9710  -48.6193 O.2       1 <1>        -0.3960 
     16 H1         -0.6214   20.4515  -52.9276 H         1 <1>         0.0615 
     17 H2         -0.7984   18.3074  -51.6765 H         1 <1>         0.0549 
     18 H3         -0.0080   20.3811  -47.9998 H         1 <1>         0.0549 
     19 H4          0.1808   22.5244  -49.2450 H         1 <1>         0.0615 
     20 H5          1.3870   18.1054  -48.0483 H         1 <1>         0.1102 
     21 H6          1.9796   17.8093  -50.6807 H         1 <1>         0.0689 
     22 H7          0.0816   15.9909  -47.3132 H         1 <1>         0.1895 
     23 H8          2.4974   13.9579  -50.9767 H         1 <1>         0.0348 
     24 H9          3.6259   15.3427  -51.1005 H         1 <1>         0.0348 
     25 H10         2.1403   15.3018  -52.1042 H         1 <1>         0.0348 
@<TRIPOS>BOND
     1    2    1 1    
     2    2    3 ar   
     3    3    4 ar   
     4    4    5 ar   
     5    5    6 ar   
     6    6    7 ar   
     7    2    7 ar   
     8    5    8 1    
     9    8    9 1    
    10    9   10 1    
    11   10   11 2    
    12   11   12 1    
    13   12   13 am   
    14    9   13 1    
    15   11   14 1    
    16   12   15 2    
    17    3   16 1    
    18    4   17 1    
    19    6   18 1    
    20    7   19 1    
    21    9   20 1    
    22   10   21 1    
    23   13   22 1    
    24   14   23 1    
    25   14   24 1    
    26   14   25 1    
@<TRIPOS>SUBSTRUCTURE
     1 ****        2 TEMP              0 ****  ****    0 ROOT 
@<TRIPOS>NORMAL
@<TRIPOS>FF_PBC
FORCE_FIELD_SETUP_FEATURE Force Field Setup information
v1.0  0 0.000000 0.000000 0.000000 0.000000 0.000000 0.000000 NONE 0 0 0 0 1 0 0 0 0 0 0 0 0
