#	Name:			PISM00767
#	Creating user name:	baoopengkun
#	Creation time:		Fri Dec 14 23:08:24 2018

#	Modifying user name:	baoopengkun
#	Modification time:	Fri Dec 14 23:14:29 2018

@<TRIPOS>MOLECULE
PISM00767
   38    40     1     1     0
SMALL
GAST_HUCK


@<TRIPOS>ATOM
      1 C1         25.3411    3.2304  -11.1942 C.ar      1 <1>        -0.0398 
      2 C2         24.3378    2.3176  -11.5403 C.ar      1 <1>        -0.0562 
      3 C3         23.0261    2.4896  -11.0782 C.ar      1 <1>        -0.0558 
      4 C4         22.7002    3.5705  -10.2509 C.ar      1 <1>        -0.0288 
      5 C5         23.7105    4.4684   -9.9043 C.ar      1 <1>         0.1375 
      6 C6         25.0042    4.3141  -10.3807 C.ar      1 <1>         0.0833 
      7 C7         25.9037    5.4308   -9.9133 C.2       1 <1>         0.2495 
      8 O8         27.0779    5.3867  -10.2323 O.2       1 <1>        -0.3758 
      9 N9         25.2872    6.3832   -9.1681 N.am      1 <1>        -0.0922 
     10 S10        23.5749    5.8665   -8.8497 S.o2      1 <1>         0.1093 
     11 O11        23.4286    5.3844   -7.4924 O.2       1 <1>        -0.1407 
     12 O12        22.6534    6.8254   -9.4228 O.2       1 <1>        -0.1407 
     13 C13        25.7331    7.5830   -8.7003 C.2       1 <1>         0.1537 
     14 C14        24.8565    8.3589   -7.7959 C.2       1 <1>         0.1349 
     15 O15        24.4999    9.4722   -8.1457 O.2       1 <1>        -0.3931 
     16 C16        24.4170    7.8600   -6.4476 C.3       1 <1>         0.0079 
     17 C17        26.9008    8.1862   -8.9826 C.2       1 <1>         0.0851 
     18 O18        27.7845    7.6425   -9.8271 O.3       1 <1>        -0.2884 
     19 C19        29.0021    8.3916   -9.9950 C.3       1 <1>         0.2329 
     20 C20        29.8307    8.3559   -8.7303 C.2       1 <1>        -0.0019 
     21 C21        30.9721    7.7018   -8.9354 C.2       1 <1>         0.0292 
     22 C22        30.8980    7.3193  -10.3401 C.2       1 <1>         0.2495 
     23 O23        29.8026    7.7077  -10.9802 O.3       1 <1>        -0.2313 
     24 C24        32.0733    7.4166   -7.9510 C.3       1 <1>        -0.0323 
     25 O25        31.7847    6.6941  -10.8962 O.2       1 <1>        -0.3691 
     26 H1         26.3592    3.1049  -11.5492 H         1 <1>         0.0668 
     27 H2         24.5792    1.4689  -12.1736 H         1 <1>         0.0629 
     28 H3         22.2561    1.7785  -11.3629 H         1 <1>         0.0652 
     29 H4         21.6899    3.7133   -9.8821 H         1 <1>         0.0649 
     30 H5         24.6905    8.6053   -5.6862 H         1 <1>         0.0442 
     31 H6         24.9112    6.9109   -6.1944 H         1 <1>         0.0442 
     32 H7         23.3248    7.7297   -6.4351 H         1 <1>         0.0442 
     33 H8         27.1031    9.1512   -8.5093 H         1 <1>         0.0861 
     34 H9         28.8205    9.4208  -10.3485 H         1 <1>         0.1200 
     35 H10        29.5410    8.7959   -7.7773 H         1 <1>         0.0705 
     36 H11        31.6469    7.1154   -6.9824 H         1 <1>         0.0347 
     37 H12        32.6842    8.3207   -7.8117 H         1 <1>         0.0347 
     38 H13        32.7153    6.6047   -8.3248 H         1 <1>         0.0347 
@<TRIPOS>BOND
     1    2    1 ar   
     2    2    3 ar   
     3    3    4 ar   
     4    4    5 ar   
     5    5    6 ar   
     6    1    6 ar   
     7    6    7 1    
     8    7    8 2    
     9    7    9 am   
    10    9   10 1    
    11    5   10 1    
    12   10   11 2    
    13   10   12 2    
    14    9   13 am   
    15   13   14 1    
    16   14   15 2    
    17   14   16 1    
    18   13   17 2    
    19   17   18 1    
    20   18   19 1    
    21   19   20 1    
    22   20   21 2    
    23   21   22 1    
    24   22   23 1    
    25   19   23 1    
    26   21   24 1    
    27   22   25 2    
    28    1   26 1    
    29    2   27 1    
    30    3   28 1    
    31    4   29 1    
    32   16   30 1    
    33   16   31 1    
    34   16   32 1    
    35   17   33 1    
    36   19   34 1    
    37   20   35 1    
    38   24   36 1    
    39   24   37 1    
    40   24   38 1    
@<TRIPOS>SUBSTRUCTURE
     1 ****        2 TEMP              0 ****  ****    0 ROOT 
@<TRIPOS>NORMAL
@<TRIPOS>FF_PBC
FORCE_FIELD_SETUP_FEATURE Force Field Setup information
v1.0  0 0.000000 0.000000 0.000000 0.000000 0.000000 0.000000 NONE 0 0 0 0 1 0 0 0 0 0 0 0 0
