#	Name:			PISM00657
#	Creating user name:	baoopengkun
#	Creation time:		Sat Jan 12 19:36:55 2019

#	Modifying user name:	baoopengkun
#	Modification time:	Sat Jan 12 19:40:51 2019

@<TRIPOS>MOLECULE
PISM00657
   23    23     1     1     0
SMALL
GAST_HUCK


@<TRIPOS>ATOM
      1 F1         -5.2639   -7.4962    0.6338 F         1 <1>        -0.1844 
      2 C2         -4.5240   -6.3973    0.5040 C.ar      1 <1>         0.1466 
      3 C3         -3.1317   -6.4833    0.4336 C.ar      1 <1>         0.0309 
      4 N4         -2.3846   -5.3684    0.2893 N.ar      1 <1>        -0.2834 
      5 C5         -2.9465   -4.1478    0.1652 C.ar      1 <1>         0.1311 
      6 C6         -4.3339   -4.0017    0.2920 C.ar      1 <1>        -0.0129 
      7 C7         -5.1297   -5.1411    0.4392 C.ar      1 <1>        -0.0186 
      8 N8         -2.1089   -3.1087   -0.0636 N.pl3     1 <1>        -0.2232 
      9 C9         -2.4217   -2.1040   -0.8395 C.2       1 <1>         0.2203 
     10 O10        -3.4824   -2.0122   -1.4342 O.2       1 <1>        -0.3724 
     11 C11        -1.4152   -0.9994   -1.0373 C.3       1 <1>         0.0825 
     12 C12        -0.2466   -1.5494   -1.8115 C.2       1 <1>         0.0255 
     13 O13         2.0015   -2.1446   -1.8853 O.2       1 <1>        -0.3765 
     14 C14         1.0746   -1.7521   -1.1960 C.2       1 <1>         0.2398 
     15 H15         2.1436   -1.6788    0.3715 H         1 <1>         0.2482 
     16 H2         -2.6473   -7.4510    0.4954 H         1 <1>         0.0770 
     17 H3         -4.8004   -3.0229    0.2895 H         1 <1>         0.0615 
     18 H4         -6.2091   -5.0566    0.5051 H         1 <1>         0.0692 
     19 H5         -1.1746   -3.1475    0.3688 H         1 <1>         0.2143 
     20 H6         -1.1118   -0.6108   -0.0540 H         1 <1>         0.0757 
     21 O21         1.2456   -1.5121    0.1041 O.3       1 <1>        -0.3022 
     22 H7         -1.8660   -0.1693   -1.6032 H         1 <1>         0.0757 
     23 H8         -0.3734   -1.8163   -2.8608 H         1 <1>         0.0752 
@<TRIPOS>BOND
     1    2    1 1    
     2    2    3 ar   
     3    3    4 ar   
     4    4    5 ar   
     5    5    6 ar   
     6    6    7 ar   
     7    2    7 ar   
     8    5    8 1    
     9    8    9 1    
    10    9   10 2    
    11    9   11 1    
    12   11   12 1    
    13   14   13 2    
    14   12   14 1    
    15   21   15 1    
    16    3   16 1    
    17    6   17 1    
    18    7   18 1    
    19    8   19 1    
    20   11   20 1    
    21   14   21 1    
    22   11   22 1    
    23   12   23 1    
@<TRIPOS>SUBSTRUCTURE
     1 ****        2 TEMP              0 ****  ****    0 ROOT 
@<TRIPOS>NORMAL
@<TRIPOS>FF_PBC
FORCE_FIELD_SETUP_FEATURE Force Field Setup information
v1.0  0 0.000000 0.000000 0.000000 0.000000 0.000000 0.000000 NONE 0 0 0 0 1 0 0 0 0 0 0 0 0
