#	Name:			PISM01136
#	Creating user name:	14062
#	Creation time:		Sat Apr 06 23:30:40 2019

#	Modifying user name:	14062
#	Modification time:	Sat Apr 06 23:37:57 2019

@<TRIPOS>MOLECULE
PISM01136
   31    32     3     2     0
SMALL
GAST_HUCK


@<TRIPOS>ATOM
      1 S1        -19.9095    4.3614    1.0355 S.o2      3 <3>         0.0845 
      2 N2        -18.8628    5.6185    0.7791 N.am      3 <3>        -0.1545 
      3 C2        -17.8509    4.7798   -1.3668 C.ar      1 BENZYL      0.0514 
      4 C4        -17.4543    3.4694   -1.0795 C.ar      1 BENZYL     -0.0419 
      5 C4        -17.3257    2.5334   -2.1101 C.ar      1 BENZYL     -0.0562 
      6 C5        -17.5784    2.9086   -3.4326 C.ar      1 BENZYL     -0.0575 
      7 C7        -17.9428    4.2256   -3.7259 C.ar      1 BENZYL     -0.0562 
      8 C8        -18.0667    5.1612   -2.6949 C.ar      1 BENZYL     -0.0419 
      9 O9        -19.8835    3.4219   -0.0647 O.2       3 <3>        -0.1472 
     10 O10       -19.7140    3.8834    2.3894 O.2       3 <3>        -0.1472 
     11 C11       -18.0343    5.8063   -0.2704 C.2       3 <3>         0.2249 
     12 C2        -21.8324    6.0817    2.0215 C.ar      2 BENZYL     -0.0467 
     13 C3        -21.4520    5.2472    0.9672 C.ar      2 BENZYL      0.0997 
     14 C4        -22.2782    5.1399   -0.1549 C.ar      2 BENZYL     -0.0467 
     15 C5        -23.4636    5.8769   -0.2317 C.ar      2 BENZYL     -0.0429 
     16 C6        -23.8399    6.7280    0.8148 C.ar      2 BENZYL      0.0353 
     17 C7        -23.0183    6.8193    1.9455 C.ar      2 BENZYL     -0.0429 
     18 O18       -17.3981    6.8425   -0.3725 O.2       3 <3>        -0.3830 
     19 N19       -24.9824    7.4541    0.7328 N.pl3     2 BENZYL     -0.3369 
     20 H1        -18.8614    6.3518    1.4585 H         3 <3>         0.2137 
     21 H2        -17.2453    3.1790   -0.0545 H         1 BENZYL      0.0669 
     22 H3        -17.0301    1.5136   -1.8832 H         1 BENZYL      0.0629 
     23 H4        -17.4916    2.1784   -4.2319 H         1 BENZYL      0.0653 
     24 H5        -18.1301    4.5222   -4.7539 H         1 BENZYL      0.0629 
     25 H6        -18.3332    6.1886   -2.9247 H         1 BENZYL      0.0669 
     26 H7        -21.2022    6.1567    2.9014 H         2 BENZYL      0.0602 
     27 H8        -22.0024    4.4826   -0.9729 H         2 BENZYL      0.0602 
     28 H9        -24.0907    5.7843   -1.1129 H         2 BENZYL      0.0515 
     29 H10       -23.2948    7.4655    2.7728 H         2 BENZYL      0.0515 
     30 H11       -25.2531    8.0968    1.4920 H         2 BENZYL      0.1719 
     31 H12       -25.5969    7.3754   -0.0914 H         2 BENZYL      0.1719 
@<TRIPOS>BOND
     1    1    2 1    
     2    3    4 ar   
     3    3    8 ar   
     4    8    7 ar   
     5    7    6 ar   
     6    6    5 ar   
     7    5    4 ar   
     8    2   11 am   
     9    1    9 2    
    10    1   10 2    
    11    1   13 1    
    12   12   13 ar   
    13   12   17 ar   
    14   17   16 ar   
    15   16   15 ar   
    16   15   14 ar   
    17   14   13 ar   
    18    3   11 1    
    19   11   18 2    
    20   16   19 1    
    21    2   20 1    
    22    4   21 1    
    23    5   22 1    
    24    6   23 1    
    25    7   24 1    
    26    8   25 1    
    27   12   26 1    
    28   14   27 1    
    29   15   28 1    
    30   17   29 1    
    31   19   30 1    
    32   19   31 1    
@<TRIPOS>SUBSTRUCTURE
     1 BENZYL      3 PERM              0 ****  ****    1 ROOT 
     2 BENZYL     12 PERM              0 ****  ****    1  
     3 ****        1 PERM              0 ****  ****    2  
@<TRIPOS>NORMAL
@<TRIPOS>FF_PBC
FORCE_FIELD_SETUP_FEATURE Force Field Setup information
v1.0  0 0.000000 0.000000 0.000000 0.000000 0.000000 0.000000 NONE 0 0 0 0 1 0 0 0 0 0 0 0 0
@<TRIPOS>RENDERING_ATTRS
ANTIALIASED_LINES 
1,2,3,4,5,6,7,8,9,10,11,12,13,14,15,16,17,19
