#	Name:			PISM00183
#	Creating user name:	14062
#	Creation time:		Sun Mar 31 18:26:57 2019

#	Modifying user name:	14062
#	Modification time:	Sun Mar 31 18:30:21 2019

@<TRIPOS>MOLECULE
PISM00183
   25    26     1     2     0
SMALL
GAST_HUCK


@<TRIPOS>ATOM
      1 C1          0.8120   -2.9826   -4.6206 C.ar      1 <1>        -0.0768 
      2 C2          1.8716   -2.7948   -5.5226 C.ar      1 <1>        -0.0748 
      3 C3          2.6104   -1.6039   -5.5388 C.ar      1 <1>        -0.0467 
      4 C4          2.2509   -0.6122   -4.6258 C.ar      1 <1>         0.0450 
      5 C5          1.2004   -0.8047   -3.7522 C.ar      1 <1>        -0.0185 
      6 C6          0.4543   -1.9810   -3.7091 C.ar      1 <1>        -0.0716 
      7 C7          1.1859    0.5048   -3.0158 C.2       1 <1>        -0.0227 
      8 C8          2.1831    1.2469   -3.5277 C.2       1 <1>         0.0040 
      9 N9          2.8866    0.6398   -4.4985 N.3       1 <1>        -0.2350 
     10 C10         0.2068    0.8644   -1.9269 C.3       1 <1>         0.0756 
     11 C11         0.7107    2.0239   -1.1034 C.2       1 <1>         0.2400 
     12 O12         0.1113    3.0844   -1.0273 O.2       1 <1>        -0.3685 
     13 O13         1.8602    1.8176   -0.4595 O.3       1 <1>        -0.2916 
     14 C14        -1.1734    1.1643   -2.5670 C.3       1 <1>        -0.0391 
     15 H1          0.2603   -3.9175   -4.6282 H         1 <1>         0.0524 
     16 H2          2.1245   -3.5865   -6.2210 H         1 <1>         0.0543 
     17 H3          3.4309   -1.4527   -6.2320 H         1 <1>         0.0548 
     18 H4         -0.3602   -2.1098   -3.0045 H         1 <1>         0.0551 
     19 H5          2.4064    2.2614   -3.1947 H         1 <1>         0.0760 
     20 H6          3.9082    0.4922   -4.1743 H         1 <1>         0.1886 
     21 H7          0.1162    0.0028   -1.2469 H         1 <1>         0.0641 
     22 H8          2.1134    2.5863    0.0401 H         1 <1>         0.2540 
     23 H9         -1.5315    0.2960   -3.1416 H         1 <1>         0.0272 
     24 H10        -1.0952    2.0270   -3.2467 H         1 <1>         0.0272 
     25 H11        -1.9129    1.3958   -1.7847 H         1 <1>         0.0272 
@<TRIPOS>BOND
     1    2    1 ar   
     2    2    3 ar   
     3    3    4 ar   
     4    4    5 ar   
     5    5    6 ar   
     6    1    6 ar   
     7    5    7 1    
     8    7    8 2    
     9    8    9 1    
    10    4    9 1    
    11    7   10 1    
    12   10   11 1    
    13   11   12 2    
    14   11   13 1    
    15   10   14 1    
    16    1   15 1    
    17    2   16 1    
    18    3   17 1    
    19    6   18 1    
    20    8   19 1    
    21    9   20 1    
    22   10   21 1    
    23   13   22 1    
    24   14   23 1    
    25   14   24 1    
    26   14   25 1    
@<TRIPOS>SUBSTRUCTURE
     1 ****        2 TEMP              0 ****  ****    0 ROOT 
@<TRIPOS>NORMAL
@<TRIPOS>FF_PBC
FORCE_FIELD_SETUP_FEATURE Force Field Setup information
v1.0  0 0.000000 0.000000 0.000000 0.000000 0.000000 0.000000 NONE 0 0 0 0 1 0 0 0 0 0 0 0 0
@<TRIPOS>RENDERING_ATTRS
ANTIALIASED_LINES 
*
