#	Name:			PISM00506
#	Creating user name:	malab
#	Creation time:		Thu Apr 04 12:10:24 2019

#	Modifying user name:	malab
#	Modification time:	Thu Apr 04 12:11:53 2019

@<TRIPOS>MOLECULE
PISM00506
   55    55     1     1     0
SMALL
GAST_HUCK


@<TRIPOS>ATOM
      1 C1         22.8555   13.4399   -5.0940 C.3       1 <1>        -0.0479 
      2 N2         23.8464   13.5483   -3.9800 N.4       1 <1>         0.4226 
      3 C3         23.1473   14.2852   -2.8669 C.3       1 <1>        -0.0479 
      4 C4         24.9912   14.4291   -4.3861 C.3       1 <1>        -0.0479 
      5 C5         24.2605   12.1913   -3.6507 C.ar      1 <1>        -0.0061 
      6 C6         23.5620   11.4775   -2.6575 C.ar      1 <1>        -0.0291 
      7 C7         24.0063   10.2813   -2.0872 C.ar      1 <1>         0.0063 
      8 C8         25.1725    9.7162   -2.6026 C.ar      1 <1>         0.1403 
      9 C9         25.8783   10.3917   -3.5920 C.ar      1 <1>        -0.0112 
     10 C10        25.3409   11.5057   -4.2496 C.ar      1 <1>        -0.0095 
     11 C11        26.0294   11.8230   -5.5975 C.3       1 <1>        -0.0246 
     12 C12        23.2389    9.6244   -0.9217 C.3       1 <1>        -0.0121 
     13 C13        23.2309   10.5501    0.3266 C.3       1 <1>        -0.0540 
     14 C14        21.7855    9.2533   -1.3183 C.3       1 <1>        -0.0540 
     15 O15        25.6420    8.4824   -2.1586 O.3       1 <1>        -0.1905 
     16 C16        25.4663    7.5220   -3.0801 C.2       1 <1>         0.3516 
     17 O17        24.6385    7.6458   -3.9683 O.2       1 <1>        -0.3703 
     18 N18        26.2947    6.4547   -2.9710 N.am      1 <1>        -0.2444 
     19 C19        27.2997    6.4448   -1.9057 C.3       1 <1>         0.0362 
     20 C20        27.9416    5.0591   -1.6485 C.3       1 <1>        -0.0325 
     21 C21        28.2995    4.3651   -2.9827 C.3       1 <1>        -0.0494 
     22 C22        26.9915    4.1481   -3.7777 C.3       1 <1>        -0.0325 
     23 C23        26.3200    5.5074   -4.0877 C.3       1 <1>         0.0362 
     24 Cl24       27.6397   12.6694   -2.7776 Cl        0 <0>        -1.0000 
     25 H1         21.9720   12.8577   -4.7901 H         1 <1>         0.0516 
     26 H2         23.2579   12.9460   -5.9842 H         1 <1>         0.0516 
     27 H3         22.5200   14.4388   -5.4115 H         1 <1>         0.0516 
     28 H4         22.9745   15.3518   -3.0866 H         1 <1>         0.0516 
     29 H5         23.7380   14.2286   -1.9364 H         1 <1>         0.0516 
     30 H6         22.1268   13.9324   -2.6514 H         1 <1>         0.0516 
     31 H7         25.8754   14.2306   -3.7647 H         1 <1>         0.0516 
     32 H8         24.8094   15.5118   -4.3097 H         1 <1>         0.0516 
     33 H9         25.2526   14.2955   -5.4408 H         1 <1>         0.0516 
     34 H10        22.6181   11.8386   -2.2921 H         1 <1>         0.0574 
     35 H11        26.8667   10.0203   -3.8397 H         1 <1>         0.0524 
     36 H12        26.5652   10.9369   -5.9779 H         1 <1>         0.0418 
     37 H13        26.7873   12.6162   -5.4946 H         1 <1>         0.0418 
     38 H14        25.2958   12.0790   -6.3708 H         1 <1>         0.0418 
     39 H15        23.7475    8.6891   -0.6328 H         1 <1>         0.0439 
     40 H16        22.6827   11.4840    0.1273 H         1 <1>         0.0252 
     41 H17        24.2623   10.8034    0.6170 H         1 <1>         0.0252 
     42 H18        22.7439   10.0395    1.1746 H         1 <1>         0.0252 
     43 H19        21.3152    8.6757   -0.5071 H         1 <1>         0.0252 
     44 H20        21.7848    8.6378   -2.2295 H         1 <1>         0.0252 
     45 H21        21.1675   10.1443   -1.4968 H         1 <1>         0.0252 
     46 H22        26.8811    6.8016   -0.9482 H         1 <1>         0.0522 
     47 H23        28.0963    7.1440   -2.2092 H         1 <1>         0.0522 
     48 H24        27.2370    4.4190   -1.0932 H         1 <1>         0.0285 
     49 H25        28.8453    5.1820   -1.0280 H         1 <1>         0.0285 
     50 H26        28.7759    3.3938   -2.7825 H         1 <1>         0.0267 
     51 H27        29.0031    4.9870   -3.5582 H         1 <1>         0.0267 
     52 H28        26.3027    3.5269   -3.1820 H         1 <1>         0.0285 
     53 H29        27.2010    3.6101   -4.7195 H         1 <1>         0.0285 
     54 H30        25.3043    5.3045   -4.4668 H         1 <1>         0.0522 
     55 H31        26.8951    5.9904   -4.8957 H         1 <1>         0.0522 
@<TRIPOS>BOND
     1    2    1 1    
     2    2    3 1    
     3    2    4 1    
     4    2    5 1    
     5    5    6 ar   
     6    6    7 ar   
     7    7    8 ar   
     8    8    9 ar   
     9    9   10 ar   
    10    5   10 ar   
    11   10   11 1    
    12    7   12 1    
    13   12   13 1    
    14   12   14 1    
    15    8   15 1    
    16   15   16 1    
    17   16   17 2    
    18   16   18 am   
    19   18   19 1    
    20   19   20 1    
    21   20   21 1    
    22   21   22 1    
    23   22   23 1    
    24   18   23 1    
    25    1   25 1    
    26    1   26 1    
    27    1   27 1    
    28    3   28 1    
    29    3   29 1    
    30    3   30 1    
    31    4   31 1    
    32    4   32 1    
    33    4   33 1    
    34    6   34 1    
    35    9   35 1    
    36   11   36 1    
    37   11   37 1    
    38   11   38 1    
    39   12   39 1    
    40   13   40 1    
    41   13   41 1    
    42   13   42 1    
    43   14   43 1    
    44   14   44 1    
    45   14   45 1    
    46   19   46 1    
    47   19   47 1    
    48   20   48 1    
    49   20   49 1    
    50   21   50 1    
    51   21   51 1    
    52   22   52 1    
    53   22   53 1    
    54   23   54 1    
    55   23   55 1    
@<TRIPOS>SUBSTRUCTURE
     1 ****        2 TEMP              0 ****  ****    0 ROOT 
@<TRIPOS>NORMAL
@<TRIPOS>FF_PBC
FORCE_FIELD_SETUP_FEATURE Force Field Setup information
v1.0  0 0.000000 0.000000 0.000000 0.000000 0.000000 0.000000 NONE 0 0 0 0 1 0 0 0 0 0 0 0 0
00 NONE 0 0 0 0 1 0 0 0 0 0 0 0 0
