#	Name:			PISM00849
#	Creating user name:	baoopengkun
#	Creation time:		Thu Dec 13 15:12:19 2018

#	Modifying user name:	baoopengkun
#	Modification time:	Thu Dec 13 15:16:44 2018

@<TRIPOS>MOLECULE
PISM00849
   24    25     1     1     0
SMALL
GAST_HUCK


@<TRIPOS>ATOM
      1 Cl1        -3.6950    1.8910   -1.5386 Cl        1 <1>        -0.0810 
      2 C2         -1.8029    0.5775   -0.0678 C.ar      1 <1>        -0.0426 
      3 C3         -2.0696    1.3212   -1.2207 C.ar      1 <1>         0.0291 
      4 C4         -1.0390    1.6101   -2.1197 C.ar      1 <1>        -0.0564 
      5 C5          0.2578    1.1541   -1.8653 C.ar      1 <1>        -0.0313 
      6 C6          0.5252    0.4135   -0.7108 C.ar      1 <1>         0.1127 
      7 C7         -0.5060    0.1235    0.1878 C.ar      1 <1>         0.0689 
      8 Cl8        -0.1738   -0.8074    1.6344 Cl        1 <1>        -0.0787 
      9 O9          1.8205   -0.0346   -0.4591 O.3       1 <1>        -0.2696 
     10 C10         2.5937    0.9048    0.2979 C.3       1 <1>         0.2360 
     11 O11         2.6890    2.1518   -0.4201 O.3       1 <1>        -0.2313 
     12 C12         3.9719    2.2759   -0.7351 C.2       1 <1>         0.2495 
     13 C13         4.8426    1.2089   -0.2544 C.2       1 <1>         0.0292 
     14 C14         4.0076    0.3852    0.3761 C.2       1 <1>        -0.0019 
     15 C15         6.3288    1.0698   -0.4408 C.3       1 <1>        -0.0323 
     16 O16         4.3887    3.2244   -1.3771 O.2       1 <1>        -0.3691 
     17 H1         -2.6030    0.3527    0.6292 H         1 <1>         0.0601 
     18 H2         -1.2471    2.1884   -3.0142 H         1 <1>         0.0597 
     19 H3          1.0613    1.3731   -2.5611 H         1 <1>         0.0543 
     20 H4          2.1768    1.0698    1.3054 H         1 <1>         0.1199 
     21 H5          4.2962   -0.5401    0.8730 H         1 <1>         0.0705 
     22 H6          6.5970    0.0137   -0.5947 H         1 <1>         0.0347 
     23 H7          6.8472    1.4476    0.4528 H         1 <1>         0.0347 
     24 H8          6.6549    1.6506   -1.3168 H         1 <1>         0.0347 
@<TRIPOS>BOND
     1    3    1 1    
     2    2    3 ar   
     3    3    4 ar   
     4    4    5 ar   
     5    5    6 ar   
     6    6    7 ar   
     7    2    7 ar   
     8    7    8 1    
     9    6    9 1    
    10    9   10 1    
    11   10   11 1    
    12   11   12 1    
    13   12   13 1    
    14   13   14 2    
    15   10   14 1    
    16   13   15 1    
    17   12   16 2    
    18    2   17 1    
    19    4   18 1    
    20    5   19 1    
    21   10   20 1    
    22   14   21 1    
    23   15   22 1    
    24   15   23 1    
    25   15   24 1    
@<TRIPOS>SUBSTRUCTURE
     1 ****        2 TEMP              0 ****  ****    0 ROOT 
@<TRIPOS>NORMAL
@<TRIPOS>FF_PBC
FORCE_FIELD_SETUP_FEATURE Force Field Setup information
v1.0  0 0.000000 0.000000 0.000000 0.000000 0.000000 0.000000 NONE 0 0 0 0 1 0 0 0 0 0 0 0 0
