#	Name:			PISM00147.2
#	Creating user name:	14062
#	Creation time:		Sat Oct 19 22:24:58 2019

#	Modifying user name:	14062
#	Modification time:	Sat Oct 19 22:35:44 2019

@<TRIPOS>MOLECULE
PISM00147.2
   31    32     2     2     0
SMALL
GAST_HUCK


@<TRIPOS>ATOM
      1 C1          1.9071    2.7362    6.4024 C.3       1 BENZYL      0.1325 
      2 C1          3.0372    2.2479    5.4333 C.3       1 BENZYL      0.2383 
      3 C2          2.5498    2.7552    4.0786 C.ar      1 BENZYL      0.0221 
      4 C3          1.4419    3.5633    4.2713 C.ar      1 BENZYL      0.0410 
      5 C4          0.8024    4.1991    3.2070 C.ar      1 BENZYL     -0.0523 
      6 C5          1.3200    3.9900    1.9229 C.ar      1 BENZYL     -0.0471 
      7 C6          2.4357    3.1656    1.7230 C.ar      1 BENZYL      0.1115 
      8 C7          3.0587    2.5253    2.8003 C.ar      1 BENZYL     -0.0345 
      9 N9          1.1064    3.6254    5.5711 N.pl3     1 BENZYL     -0.3117 
     10 F10         2.9098    2.9857    0.4948 F         1 BENZYL     -0.1964 
     11 N           4.2820    2.9354    5.7060 N.2       2 NO          0.1721 
     12 O           5.3025    2.2890    5.9938 O.2       2 NO          0.0926 
     13 O13         4.3371    4.3432    5.6748 O.3       2 NO         -0.0551 
     14 S14         0.8809    1.3507    7.0024 S.3       1 BENZYL     -0.1056 
     15 C15        -0.4014    1.1476    5.7151 C.3       1 BENZYL      0.0970 
     16 C16         0.1744    0.7507    4.3838 C.2       1 BENZYL      0.2436 
     17 O17         1.2617    0.2035    4.2882 O.2       1 BENZYL     -0.3695 
     18 O18        -0.6039    1.0277    3.3290 O.3       1 BENZYL     -0.2796 
     19 C19        -0.0971    0.5154    2.0809 C.3       1 BENZYL      0.0658 
     20 H1          2.3219    3.2588    7.2798 H         1 BENZYL      0.0721 
     21 H2          3.1708    1.1546    5.4449 H         1 BENZYL      0.0954 
     22 H3         -0.0649    4.8299    3.3710 H         1 BENZYL      0.0485 
     23 H4          0.8537    4.4694    1.0684 H         1 BENZYL      0.0513 
     24 H5          3.9100    1.8721    2.6437 H         1 BENZYL      0.0509 
     25 H6          0.3871    4.2664    5.9459 H         1 BENZYL      0.1735 
     26 H7          4.6516    4.6769    4.8387 H         2 NO          0.4439 
     27 H8         -0.9849    2.0745    5.6178 H         1 BENZYL      0.0633 
     28 H9         -1.0781    0.3436    6.0379 H         1 BENZYL      0.0633 
     29 H10        -0.0354   -0.5843    2.1040 H         1 BENZYL      0.0577 
     30 H11         0.8925    0.9278    1.8358 H         1 BENZYL      0.0577 
     31 H12        -0.7994    0.8073    1.2863 H         1 BENZYL      0.0577 
@<TRIPOS>BOND
     1    2    3 1    
     2    3    4 ar   
     3    3    8 ar   
     4    8    7 ar   
     5    7    6 ar   
     6    6    5 ar   
     7    5    4 ar   
     8    2    1 1    
     9    1    9 1    
    10    4    9 1    
    11    7   10 1    
    12   11   12 2    
    13    2   11 1    
    14   11   13 1    
    15    1   14 1    
    16   14   15 1    
    17   15   16 1    
    18   16   17 2    
    19   16   18 1    
    20   18   19 1    
    21    1   20 1    
    22    2   21 1    
    23    5   22 1    
    24    6   23 1    
    25    8   24 1    
    26    9   25 1    
    27   13   26 1    
    28   15   27 1    
    29   15   28 1    
    30   19   29 1    
    31   19   30 1    
    32   19   31 1    
@<TRIPOS>SUBSTRUCTURE
     1 BENZYL      2 PERM              0 ****  ****    1 ROOT 
     2 NO         11 PERM              0 ****  ****    1  
@<TRIPOS>NORMAL
@<TRIPOS>FF_PBC
FORCE_FIELD_SETUP_FEATURE Force Field Setup information
v1.0  0 0.000000 0.000000 0.000000 0.000000 0.000000 0.000000 NONE 0 0 0 0 1 0 0 0 0 0 0 0 0
@<TRIPOS>RENDERING_ATTRS
SMOOTH_STICKS   
*
