#	Name:			PISM00179
#	Creating user name:	14062
#	Creation time:		Sun Mar 31 16:39:15 2019

#	Modifying user name:	14062
#	Modification time:	Sun Mar 31 16:40:58 2019

@<TRIPOS>MOLECULE
PISM00179
   19    20     1     1     0
SMALL
GAST_HUCK


@<TRIPOS>ATOM
      1 C1         -2.8201    5.3471    7.7637 C.2       1 <1>         0.0149 
      2 C2         -3.3013    4.1251    8.0127 C.2       1 <1>         0.0130 
      3 C3         -3.1009    3.0132    7.0686 C.2       1 <1>         0.1607 
      4 C4         -2.3352    3.2405    5.7819 C.ar      1 <1>         0.0799 
      5 C5         -1.8310    4.5205    5.5259 C.ar      1 <1>         0.0435 
      6 C6         -2.0685    5.6262    6.5309 C.2       1 <1>         0.1641 
      7 C7         -1.1148    4.7723    4.3515 C.ar      1 <1>        -0.0493 
      8 C8         -0.9030    3.7445    3.4299 C.ar      1 <1>        -0.0603 
      9 C9         -1.4083    2.4667    3.6835 C.ar      1 <1>        -0.0225 
     10 C10        -2.1265    2.2075    4.8584 C.ar      1 <1>         0.1125 
     11 O11        -3.5654    1.9226    7.3553 O.2       1 <1>        -0.3652 
     12 O12        -2.6356    0.9308    5.1173 O.3       1 <1>        -0.3264 
     13 O13        -1.6432    6.7522    6.3321 O.2       1 <1>        -0.3583 
     14 H1         -2.9756    6.1622    8.4711 H         1 <1>         0.0802 
     15 H2         -3.8573    3.9275    8.9299 H         1 <1>         0.0801 
     16 H3         -0.7218    5.7646    4.1522 H         1 <1>         0.0593 
     17 H4         -0.3462    3.9393    2.5178 H         1 <1>         0.0636 
     18 H5         -1.2364    1.6783    2.9577 H         1 <1>         0.0592 
     19 H6         -2.4696    0.2831    4.4423 H         1 <1>         0.2512 
@<TRIPOS>BOND
     1    2    1 2    
     2    2    3 1    
     3    3    4 1    
     4    4    5 ar   
     5    5    6 1    
     6    1    6 1    
     7    5    7 ar   
     8    7    8 ar   
     9    8    9 ar   
    10    9   10 ar   
    11    4   10 ar   
    12    3   11 2    
    13   10   12 1    
    14    6   13 2    
    15    1   14 1    
    16    2   15 1    
    17    7   16 1    
    18    8   17 1    
    19    9   18 1    
    20   12   19 1    
@<TRIPOS>SUBSTRUCTURE
     1 ****        2 TEMP              0 ****  ****    0 ROOT 
@<TRIPOS>NORMAL
@<TRIPOS>FF_PBC
FORCE_FIELD_SETUP_FEATURE Force Field Setup information
v1.0  0 0.000000 0.000000 0.000000 0.000000 0.000000 0.000000 NONE 0 0 0 0 1 0 0 0 0 0 0 0 0
