#	Name:			PISM00938
#	Creating user name:	baoopengkun
#	Creation time:		Wed Dec 12 22:41:34 2018

#	Modifying user name:	baoopengkun
#	Modification time:	Wed Dec 12 23:08:37 2018

@<TRIPOS>MOLECULE
PISM00938
   21    21     1     1     0
SMALL
GAST_HUCK


@<TRIPOS>ATOM
      1 C1          2.0799   -6.5455    3.6172 C.3       1 <1>         0.0097 
      2 C2          1.9821   -6.9039    5.0745 C.2       1 <1>         0.0852 
      3 C3          2.9484   -7.2533    5.9211 C.2       1 <1>        -0.0191 
      4 C4          2.3987   -7.5406    7.2967 C.3       1 <1>         0.1576 
      5 O5          0.9840   -7.2881    7.1802 O.3       1 <1>        -0.3177 
      6 C6          0.7876   -6.9487    5.9113 C.2       1 <1>         0.2937 
      7 C7          4.4253   -7.3918    5.6548 C.3       1 <1>        -0.0369 
      8 O8          2.5835   -8.9294    7.5736 O.3       1 <1>        -0.4400 
      9 O9         -0.3210   -6.6826    5.4781 O.2       1 <1>        -0.3278 
     10 C10         3.0450   -6.6818    8.3554 C.2       1 <1>        -0.0660 
     11 C11         2.4267   -5.6502    8.9434 C.2       1 <1>        -0.0687 
     12 H1          2.7682   -5.6974    3.4867 H         1 <1>         0.0560 
     13 H2          1.0905   -6.2639    3.2267 H         1 <1>         0.0560 
     14 H3          2.4541   -7.4090    3.0476 H         1 <1>         0.0560 
     15 H4          4.7606   -8.3919    5.9679 H         1 <1>         0.0386 
     16 H5          4.9814   -6.6330    6.2244 H         1 <1>         0.0386 
     17 H6          4.6534   -7.2643    4.5866 H         1 <1>         0.0386 
     18 H7          2.1532   -9.1687    8.3871 H         1 <1>         0.1841 
     19 H8          4.0672   -6.9289    8.6435 H         1 <1>         0.0501 
     20 H9          1.4059   -5.3713    8.6830 H         1 <1>         0.1060 
     21 H10         2.9356   -5.0593    9.7050 H         1 <1>         0.1060 
@<TRIPOS>BOND
     1    2    1 1    
     2    2    3 2    
     3    3    4 1    
     4    4    5 1    
     5    5    6 1    
     6    2    6 1    
     7    3    7 1    
     8    4    8 1    
     9    6    9 2    
    10    4   10 1    
    11   10   11 2    
    12    1   12 1    
    13    1   13 1    
    14    1   14 1    
    15    7   15 1    
    16    7   16 1    
    17    7   17 1    
    18    8   18 1    
    19   10   19 1    
    20   11   20 1    
    21   11   21 1    
@<TRIPOS>SUBSTRUCTURE
     1 ****        2 TEMP              0 ****  ****    0 ROOT 
@<TRIPOS>NORMAL
@<TRIPOS>FF_PBC
FORCE_FIELD_SETUP_FEATURE Force Field Setup information
v1.0  0 0.000000 0.000000 0.000000 0.000000 0.000000 0.000000 NONE 0 0 0 0 1 0 0 0 0 0 0 0 0
