#	Name:			PISM00275
#	Creating user name:	baoopengkun
#	Creation time:		Sun Mar 31 17:37:08 2019

#	Modifying user name:	baoopengkun
#	Modification time:	Sun Mar 31 17:42:25 2019

@<TRIPOS>MOLECULE
PISM00275
   54    55     1     1     0
SMALL
GAST_HUCK


@<TRIPOS>ATOM
      1 C1         -5.8035    4.7207   -4.3976 C.ar      1 <1>        -0.0795 
      2 C2         -4.4834    5.1291   -4.6117 C.ar      1 <1>        -0.0432 
      3 C3         -3.4808    4.1821   -4.8603 C.ar      1 <1>         0.1176 
      4 C4         -3.8191    2.8235   -4.8553 C.ar      1 <1>         0.1167 
      5 C5         -5.1379    2.4200   -4.6326 C.ar      1 <1>        -0.0403 
      6 C6         -6.1491    3.3658   -4.4301 C.ar      1 <1>        -0.0595 
      7 O7         -2.1497    4.5532   -5.1136 O.3       1 <1>        -0.3259 
      8 C8         -1.7368    5.9264   -5.2008 C.3       1 <1>         0.0567 
      9 O9         -2.8392    1.8513   -5.0728 O.3       1 <1>        -0.3256 
     10 C10        -1.9666    1.6355   -3.9520 C.3       1 <1>         0.0568 
     11 C11        -7.6014    2.9778   -4.2386 C.2       1 <1>        -0.0763 
     12 C12        -8.1481    1.8666   -4.7517 C.2       1 <1>        -0.0657 
     13 C13        -9.5989    1.4977   -4.5478 C.3       1 <1>         0.0326 
     14 N14       -10.3809    1.7094   -5.7932 N.3       1 <1>        -0.2607 
     15 C15       -10.4816    3.1321   -6.2144 C.3       1 <1>         0.1046 
     16 C16       -11.0382    4.0238   -5.1346 C.2       1 <1>         0.2482 
     17 O17       -12.1641    3.8548   -4.6927 O.2       1 <1>        -0.3690 
     18 O18       -10.2202    4.9946   -4.7016 O.3       1 <1>        -0.2792 
     19 C19       -10.7845    5.7953   -3.6453 C.3       1 <1>         0.0658 
     20 C20       -10.0762    0.7786   -6.9092 C.3       1 <1>         0.0345 
     21 C21       -10.2045   -0.6819   -6.4600 C.ar      1 <1>        -0.0353 
     22 C22        -9.1471   -1.5870   -6.6024 C.ar      1 <1>        -0.0656 
     23 C23        -9.2940   -2.9116   -6.1802 C.ar      1 <1>        -0.0670 
     24 C24       -10.4967   -3.3468   -5.6137 C.ar      1 <1>        -0.0528 
     25 C25       -11.5512   -2.4390   -5.4653 C.ar      1 <1>        -0.0670 
     26 C26       -11.4055   -1.1152   -5.8897 C.ar      1 <1>        -0.0656 
     27 C27       -10.6354   -4.8072   -5.1680 C.3       1 <1>        -0.0343 
     28 H1         -6.5678    5.4686   -4.2086 H         1 <1>         0.0472 
     29 H2         -4.2647    6.1894   -4.5803 H         1 <1>         0.0508 
     30 H3         -5.3523    1.3588   -4.6101 H         1 <1>         0.0473 
     31 H4         -0.6621    5.9374   -5.4346 H         1 <1>         0.0573 
     32 H5         -1.8870    6.4477   -4.2431 H         1 <1>         0.0573 
     33 H6         -2.2732    6.4488   -6.0077 H         1 <1>         0.0573 
     34 H7         -1.2492    0.8471   -4.2228 H         1 <1>         0.0573 
     35 H8         -2.5422    1.3034   -3.0739 H         1 <1>         0.0573 
     36 H9         -1.4050    2.5465   -3.6949 H         1 <1>         0.0573 
     37 H10        -8.2213    3.6598   -3.6570 H         1 <1>         0.0412 
     38 H11        -7.5533    1.1837   -5.3561 H         1 <1>         0.0691 
     39 H12       -10.0501    2.0836   -3.7321 H         1 <1>         0.0619 
     40 H13        -9.6495    0.4473   -4.2229 H         1 <1>         0.0619 
     41 H14       -11.1765    3.2263   -7.0621 H         1 <1>         0.0688 
     42 H15        -9.4961    3.5039   -6.5364 H         1 <1>         0.0688 
     43 H16       -11.6981    6.3136   -3.9784 H         1 <1>         0.0577 
     44 H17       -10.0392    6.5522   -3.3600 H         1 <1>         0.0577 
     45 H18       -11.0135    5.1811   -2.7595 H         1 <1>         0.0577 
     46 H19        -9.0776    0.9883   -7.3226 H         1 <1>         0.0580 
     47 H20       -10.8095    0.9077   -7.7206 H         1 <1>         0.0580 
     48 H21        -8.2067   -1.2684   -7.0400 H         1 <1>         0.0540 
     49 H22        -8.4674   -3.6061   -6.2933 H         1 <1>         0.0540 
     50 H23       -12.4889   -2.7548   -5.0194 H         1 <1>         0.0540 
     51 H24       -12.2297   -0.4180   -5.7740 H         1 <1>         0.0540 
     52 H25       -10.3537   -5.4721   -5.9984 H         1 <1>         0.0378 
     53 H26       -11.6645   -5.0478   -4.8620 H         1 <1>         0.0378 
     54 H27        -9.9612   -4.9884   -4.3176 H         1 <1>         0.0378 
@<TRIPOS>BOND
     1    2    1 ar   
     2    2    3 ar   
     3    3    4 ar   
     4    4    5 ar   
     5    5    6 ar   
     6    1    6 ar   
     7    3    7 1    
     8    7    8 1    
     9    4    9 1    
    10    9   10 1    
    11    6   11 1    
    12   11   12 2    
    13   12   13 1    
    14   13   14 1    
    15   14   15 1    
    16   15   16 1    
    17   16   17 2    
    18   16   18 1    
    19   18   19 1    
    20   14   20 1    
    21   20   21 1    
    22   21   22 ar   
    23   22   23 ar   
    24   23   24 ar   
    25   24   25 ar   
    26   25   26 ar   
    27   21   26 ar   
    28   24   27 1    
    29    1   28 1    
    30    2   29 1    
    31    5   30 1    
    32    8   31 1    
    33    8   32 1    
    34    8   33 1    
    35   10   34 1    
    36   10   35 1    
    37   10   36 1    
    38   11   37 1    
    39   12   38 1    
    40   13   39 1    
    41   13   40 1    
    42   15   41 1    
    43   15   42 1    
    44   19   43 1    
    45   19   44 1    
    46   19   45 1    
    47   20   46 1    
    48   20   47 1    
    49   22   48 1    
    50   23   49 1    
    51   25   50 1    
    52   26   51 1    
    53   27   52 1    
    54   27   53 1    
    55   27   54 1    
@<TRIPOS>SUBSTRUCTURE
     1 ****        2 TEMP              0 ****  ****    0 ROOT 
@<TRIPOS>NORMAL
@<TRIPOS>FF_PBC
FORCE_FIELD_SETUP_FEATURE Force Field Setup information
v1.0  0 0.000000 0.000000 0.000000 0.000000 0.000000 0.000000 NONE 0 0 0 0 1 0 0 0 0 0 0 0 0
