#	Name:			PISM00834.3
#	Creating user name:	baoopengkun
#	Creation time:		Fri Nov 30 18:55:18 2018

#	Modifying user name:	baoopengkun
#	Modification time:	Fri Nov 30 19:00:06 2018

@<TRIPOS>MOLECULE
PISM00834.3
   32    33     1     2     0
SMALL
GAST_HUCK


@<TRIPOS>ATOM
      1 C1        -11.2525    1.4282   12.8479 C.ar      1 <1>        -0.0537 
      2 C2        -10.2820    0.8102   12.0536 C.ar      1 <1>        -0.0620 
      3 C3        -10.4908   -0.4851   11.5726 C.ar      1 <1>        -0.0626 
      4 C4        -11.6727   -1.1600   11.8885 C.ar      1 <1>        -0.0620 
      5 C5        -12.6323   -0.5468   12.6994 C.ar      1 <1>        -0.0537 
      6 C6        -12.4223    0.7434   13.2000 C.ar      1 <1>        -0.0037 
      7 C7        -13.4670    1.3685   14.1028 C.2       1 <1>         0.0701 
      8 C8        -13.0453    2.4188   15.1157 C.3       1 <1>         0.0408 
      9 N9        -13.1883    3.7620   14.5143 N.3       1 <1>        -0.3189 
     10 N10       -14.6750    0.9804   13.9497 N.2       1 <1>        -0.1613 
     11 O11       -15.5240    1.6743   14.8310 O.3       1 <1>        -0.1992 
     12 C12       -16.0851    0.7821   15.8000 C.3       1 <1>         0.2531 
     13 C13       -16.9132    1.5947   16.7639 C.2       1 <1>         0.0004 
     14 C14       -16.3910    1.5373   17.9877 C.2       1 <1>         0.0293 
     15 C15       -15.2302    0.6701   17.8248 C.2       1 <1>         0.2496 
     16 O16       -15.0388    0.1946   16.6012 O.3       1 <1>        -0.2292 
     17 O17       -14.4851    0.3942   18.7490 O.2       1 <1>        -0.3691 
     18 C18       -16.8703    2.1966   19.2518 C.3       1 <1>        -0.0323 
     19 H1        -11.0887    2.4485   13.1778 H         1 <1>         0.0618 
     20 H2         -9.3654    1.3379   11.8073 H         1 <1>         0.0615 
     21 H3         -9.7378   -0.9649   10.9546 H         1 <1>         0.0611 
     22 H4        -11.8448   -2.1612   11.5052 H         1 <1>         0.0615 
     23 H5        -13.5442   -1.0833   12.9424 H         1 <1>         0.0618 
     24 H6        -11.9936    2.2490   15.3948 H         1 <1>         0.0589 
     25 H7        -13.6189    2.3480   16.0536 H         1 <1>         0.0589 
     26 H8        -12.8801    4.5307   15.2112 H         1 <1>         0.1207 
     27 H9        -14.2160    3.9331   14.2201 H         1 <1>         0.1207 
     28 H10       -16.6815   -0.0016   15.3063 H         1 <1>         0.1224 
     29 H11       -17.8061    2.1533   16.4860 H         1 <1>         0.0707 
     30 H12       -17.8153    2.7349   19.0843 H         1 <1>         0.0347 
     31 H13       -16.1084    2.9090   19.6014 H         1 <1>         0.0347 
     32 H14       -17.0265    1.4311   20.0264 H         1 <1>         0.0347 
@<TRIPOS>BOND
     1    2    1 ar   
     2    2    3 ar   
     3    3    4 ar   
     4    4    5 ar   
     5    5    6 ar   
     6    1    6 ar   
     7    6    7 1    
     8    7    8 1    
     9    8    9 1    
    10    7   10 2    
    11   10   11 1    
    12   11   12 1    
    13   12   13 1    
    14   13   14 2    
    15   14   15 1    
    16   15   16 1    
    17   12   16 1    
    18   15   17 2    
    19   14   18 1    
    20    1   19 1    
    21    2   20 1    
    22    3   21 1    
    23    4   22 1    
    24    5   23 1    
    25    8   24 1    
    26    8   25 1    
    27    9   26 1    
    28    9   27 1    
    29   12   28 1    
    30   13   29 1    
    31   18   30 1    
    32   18   31 1    
    33   18   32 1    
@<TRIPOS>SUBSTRUCTURE
     1 ****        2 TEMP              0 ****  ****    0 ROOT 
@<TRIPOS>NORMAL
@<TRIPOS>FF_PBC
FORCE_FIELD_SETUP_FEATURE Force Field Setup information
v1.0  0 0.000000 0.000000 0.000000 0.000000 0.000000 0.000000 NONE 0 0 0 0 1 0 0 0 0 0 0 0 0
@<TRIPOS>RENDERING_ATTRS
ANTIALIASED_LINES 
*
