#	Name:			PISM00336
#	Creating user name:	baoopengkun
#	Creation time:		Sun Mar 31 18:46:55 2019

#	Modifying user name:	baoopengkun
#	Modification time:	Sun Mar 31 18:48:44 2019

@<TRIPOS>MOLECULE
PISM00336
   49    49     1     1     0
SMALL
GAST_HUCK


@<TRIPOS>ATOM
      1 C1         -0.1364   -0.5034   -9.7915 C.3       1 <1>        -0.0486 
      2 C2         -0.7343   -1.5751   -8.8334 C.3       1 <1>         0.0225 
      3 C3         -0.1842   -1.3965   -7.4507 C.2       1 <1>         0.1783 
      4 C4          0.1897   -0.0606   -6.9593 C.2       1 <1>         0.1080 
      5 C5          0.1092    1.0280   -7.7425 C.2       1 <1>        -0.0545 
      6 C6         -0.3338    0.9359   -9.1931 C.3       1 <1>         0.0241 
      7 C7          1.3883   -0.7933   -9.9662 C.3       1 <1>        -0.0722 
      8 C8         -0.8287   -0.6654  -11.1805 C.3       1 <1>        -0.0722 
      9 O9         -0.0459   -2.3728   -6.7324 O.2       1 <1>        -0.3530 
     10 S10         0.7717    0.0276   -5.2682 S.3       1 <1>        -0.0484 
     11 C11         0.4606    2.4192   -7.2462 C.3       1 <1>        -0.0414 
     12 C12        -1.7756    1.4056   -9.2337 C.2       1 <1>        -0.0993 
     13 C13        -2.1568    2.6384   -9.5953 C.2       1 <1>        -0.0245 
     14 C14        -3.5801    3.0300   -9.6602 C.2       1 <1>         0.0167 
     15 C15        -4.5090    2.1776  -10.4959 C.3       1 <1>        -0.0145 
     16 C16        -4.0557    4.1055   -9.0109 C.2       1 <1>         0.0580 
     17 C17        -3.2945    5.0328   -8.1484 C.2       1 <1>         0.2688 
     18 O18        -2.1007    4.8768   -7.9571 O.2       1 <1>        -0.3498 
     19 O19        -3.9251    6.0553   -7.5682 O.3       1 <1>        -0.2928 
     20 O20         0.5045    1.8620   -9.9113 O.3       1 <1>        -0.4725 
     21 C21         2.5273    0.0599   -5.7530 C.3       1 <1>         0.0186 
     22 C22         3.4122    0.3336   -4.5109 C.3       1 <1>        -0.0430 
     23 C23         4.9084    0.3840   -4.9152 C.3       1 <1>        -0.0643 
     24 H1         -0.4721   -2.5853   -9.1887 H         1 <1>         0.0479 
     25 H2         -1.8307   -1.5265   -8.7697 H         1 <1>         0.0479 
     26 H3          1.5529   -1.8232  -10.3190 H         1 <1>         0.0220 
     27 H4          1.9323   -0.6668   -9.0176 H         1 <1>         0.0220 
     28 H5          1.8381   -0.1148  -10.7060 H         1 <1>         0.0220 
     29 H6         -1.9097   -0.4718  -11.1118 H         1 <1>         0.0220 
     30 H7         -0.6967   -1.6927  -11.5539 H         1 <1>         0.0220 
     31 H8         -0.4067    0.0164  -11.9323 H         1 <1>         0.0220 
     32 H9          0.6587    2.4859   -6.1680 H         1 <1>         0.0386 
     33 H10        -0.3715    3.1029   -7.4551 H         1 <1>         0.0386 
     34 H11         1.3548    2.7856   -7.7724 H         1 <1>         0.0386 
     35 H12        -2.5592    0.7109   -8.9380 H         1 <1>         0.0493 
     36 H13        -1.4213    3.3989   -9.8585 H         1 <1>         0.1042 
     37 H14        -5.0863    2.8044  -11.1921 H         1 <1>         0.0429 
     38 H15        -5.2061    1.6327   -9.8417 H         1 <1>         0.0429 
     39 H16        -3.9418    1.4467  -11.0937 H         1 <1>         0.0429 
     40 H17        -5.1147    4.3444   -9.1033 H         1 <1>         0.0917 
     41 H18        -3.3296    6.5758   -7.0382 H         1 <1>         0.2516 
     42 H19         0.3037    1.9369  -10.8362 H         1 <1>         0.1785 
     43 H20         2.6946    0.8495   -6.5020 H         1 <1>         0.0422 
     44 H21         2.7801   -0.9139   -6.2014 H         1 <1>         0.0422 
     45 H22         3.2537   -0.4642   -3.7651 H         1 <1>         0.0273 
     46 H23         3.1210    1.2964   -4.0554 H         1 <1>         0.0273 
     47 H24         5.2169   -0.5765   -5.3538 H         1 <1>         0.0230 
     48 H25         5.5368    0.5868   -4.0355 H         1 <1>         0.0230 
     49 H26         5.0769    1.1792   -5.6564 H         1 <1>         0.0230 
@<TRIPOS>BOND
     1    2    1 1    
     2    2    3 1    
     3    3    4 1    
     4    4    5 2    
     5    5    6 1    
     6    1    6 1    
     7    1    7 1    
     8    1    8 1    
     9    3    9 2    
    10    4   10 1    
    11    5   11 1    
    12    6   12 1    
    13   12   13 2    
    14   13   14 1    
    15   14   15 1    
    16   14   16 2    
    17   16   17 1    
    18   17   18 2    
    19   17   19 1    
    20    6   20 1    
    21   10   21 1    
    22   21   22 1    
    23   22   23 1    
    24    2   24 1    
    25    2   25 1    
    26    7   26 1    
    27    7   27 1    
    28    7   28 1    
    29    8   29 1    
    30    8   30 1    
    31    8   31 1    
    32   11   32 1    
    33   11   33 1    
    34   11   34 1    
    35   12   35 1    
    36   13   36 1    
    37   15   37 1    
    38   15   38 1    
    39   15   39 1    
    40   16   40 1    
    41   19   41 1    
    42   20   42 1    
    43   21   43 1    
    44   21   44 1    
    45   22   45 1    
    46   22   46 1    
    47   23   47 1    
    48   23   48 1    
    49   23   49 1    
@<TRIPOS>SUBSTRUCTURE
     1 ****        2 TEMP              0 ****  ****    0 ROOT 
@<TRIPOS>NORMAL
@<TRIPOS>FF_PBC
FORCE_FIELD_SETUP_FEATURE Force Field Setup information
v1.0  0 0.000000 0.000000 0.000000 0.000000 0.000000 0.000000 NONE 0 0 0 0 1 0 0 0 0 0 0 0 0
