#	Name:			PISM00279
#	Creating user name:	baoopengkun
#	Creation time:		Sun Mar 31 17:37:08 2019

#	Modifying user name:	baoopengkun
#	Modification time:	Sun Mar 31 18:20:58 2019

@<TRIPOS>MOLECULE
PISM00279
   54    55     1     1     0
SMALL
GAST_HUCK


@<TRIPOS>ATOM
      1 C1         -4.7571    2.4076   -4.1145 C.ar      1 <1>        -0.0795 
      2 C2         -3.4001    2.6999   -4.2822 C.ar      1 <1>        -0.0432 
      3 C3         -2.5575    1.7974   -4.9451 C.ar      1 <1>         0.1176 
      4 C4         -3.0936    0.5897   -5.4081 C.ar      1 <1>         0.1167 
      5 C5         -4.4451    0.2924   -5.2163 C.ar      1 <1>        -0.0403 
      6 C6         -5.2998    1.2138   -4.6007 C.ar      1 <1>        -0.0595 
      7 O7         -1.1950    2.0664   -5.1572 O.3       1 <1>        -0.3259 
      8 C8         -0.5995    3.3274   -4.8123 C.3       1 <1>         0.0567 
      9 O9         -2.2844   -0.3382   -6.0691 O.3       1 <1>        -0.3256 
     10 C10        -1.4100   -1.0814   -5.2047 C.3       1 <1>         0.0568 
     11 C11        -6.7864    0.9684   -4.4365 C.2       1 <1>        -0.0763 
     12 C12        -7.4985    0.1528   -5.2255 C.2       1 <1>        -0.0658 
     13 C13        -8.9791   -0.0775   -5.0439 C.3       1 <1>         0.0304 
     14 N14        -9.7344    0.6541   -6.0941 N.3       1 <1>        -0.2767 
     15 C15        -9.6590    2.1354   -5.9595 C.3       1 <1>         0.0217 
     16 C16       -10.9038    4.2947   -6.2078 C.2       1 <1>         0.2347 
     17 O17       -10.9278    5.0771   -7.1449 O.2       1 <1>        -0.3704 
     18 O18       -10.8024    4.6799   -4.9280 O.3       1 <1>        -0.2801 
     19 C19       -10.6874    6.1063   -4.7642 C.3       1 <1>         0.0658 
     20 C20        -9.5154    0.1583   -7.4794 C.3       1 <1>         0.0354 
     21 C21        -9.6346   -1.3678   -7.5869 C.ar      1 <1>        -0.0285 
     22 C22        -8.5851   -2.1470   -8.0886 C.ar      1 <1>        -0.0585 
     23 C23        -8.7167   -3.5362   -8.1703 C.ar      1 <1>        -0.0546 
     24 C24        -9.8992   -4.1536   -7.7550 C.ar      1 <1>         0.0330 
     25 C25       -10.9492   -3.3796   -7.2540 C.ar      1 <1>        -0.0546 
     26 C26       -10.8162   -1.9911   -7.1715 C.ar      1 <1>        -0.0585 
     27 Cl27      -10.0652   -5.8939   -7.8630 Cl        1 <1>        -0.0771 
     28 C28       -10.9773    2.8072   -6.4224 C.3       1 <1>         0.0618 
     29 H1         -5.3948    3.1229   -3.6035 H         1 <1>         0.0472 
     30 H2         -3.0280    3.6376   -3.8883 H         1 <1>         0.0508 
     31 H3         -4.8044   -0.6733   -5.5484 H         1 <1>         0.0473 
     32 H4          0.4561    3.2911   -5.1190 H         1 <1>         0.0573 
     33 H5         -0.6371    3.5031   -3.7266 H         1 <1>         0.0573 
     34 H6         -1.0901    4.1541   -5.3485 H         1 <1>         0.0573 
     35 H7         -0.8544   -1.8062   -5.8181 H         1 <1>         0.0573 
     36 H8         -1.9916   -1.6298   -4.4467 H         1 <1>         0.0573 
     37 H9         -0.6857   -0.4213   -4.7031 H         1 <1>         0.0573 
     38 H10        -7.2924    1.5027   -3.6320 H         1 <1>         0.0412 
     39 H11        -7.0303   -0.3761   -6.0529 H         1 <1>         0.0691 
     40 H12        -9.3192    0.2510   -4.0489 H         1 <1>         0.0617 
     41 H13        -9.1793   -1.1589   -5.0793 H         1 <1>         0.0617 
     42 H14        -8.8089    2.5412   -6.5327 H         1 <1>         0.0457 
     43 H15        -9.5083    2.4286   -4.9072 H         1 <1>         0.0457 
     44 H16       -10.6089    6.3169   -3.6878 H         1 <1>         0.0577 
     45 H17       -11.5738    6.6290   -5.1576 H         1 <1>         0.0577 
     46 H18        -9.7824    6.4918   -5.2608 H         1 <1>         0.0577 
     47 H19        -8.5376    0.4971   -7.8554 H         1 <1>         0.0592 
     48 H20       -10.2843    0.5564   -8.1559 H         1 <1>         0.0592 
     49 H21        -7.6613   -1.6820   -8.4184 H         1 <1>         0.0558 
     50 H22        -7.9000   -4.1376   -8.5577 H         1 <1>         0.0606 
     51 H23       -11.8672   -3.8583   -6.9293 H         1 <1>         0.0606 
     52 H24       -11.6334   -1.3932   -6.7808 H         1 <1>         0.0558 
     53 H25       -11.8198    2.4009   -5.8418 H         1 <1>         0.0531 
     54 H26       -11.1682    2.6208   -7.4889 H         1 <1>         0.0531 
@<TRIPOS>BOND
     1    1    2 ar   
     2    2    3 ar   
     3    4    3 ar   
     4    5    4 ar   
     5    6    5 ar   
     6    6    1 ar   
     7    3    7 1    
     8    7    8 1    
     9    4    9 1    
    10    9   10 1    
    11   11    6 1    
    12   12   11 2    
    13   13   12 1    
    14   14   13 1    
    15   15   14 1    
    16   28   15 1    
    17   16   17 2    
    18   16   18 1    
    19   18   19 1    
    20   14   20 1    
    21   20   21 1    
    22   21   22 ar   
    23   22   23 ar   
    24   23   24 ar   
    25   25   24 ar   
    26   26   25 ar   
    27   21   26 ar   
    28   24   27 1    
    29   16   28 1    
    30    1   29 1    
    31    2   30 1    
    32    5   31 1    
    33    8   32 1    
    34    8   33 1    
    35    8   34 1    
    36   10   35 1    
    37   10   36 1    
    38   10   37 1    
    39   11   38 1    
    40   12   39 1    
    41   13   40 1    
    42   13   41 1    
    43   15   42 1    
    44   15   43 1    
    45   19   44 1    
    46   19   45 1    
    47   19   46 1    
    48   20   47 1    
    49   20   48 1    
    50   22   49 1    
    51   23   50 1    
    52   25   51 1    
    53   26   52 1    
    54   28   53 1    
    55   28   54 1    
@<TRIPOS>SUBSTRUCTURE
     1 ****       16 TEMP              0 ****  ****    0 ROOT 
@<TRIPOS>NORMAL
@<TRIPOS>FF_PBC
FORCE_FIELD_SETUP_FEATURE Force Field Setup information
v1.0  0 0.000000 0.000000 0.000000 0.000000 0.000000 0.000000 NONE 0 0 0 0 1 0 0 0 0 0 0 0 0
