#	Name:			PISM00257
#	Creating user name:	14062
#	Creation time:		Fri Apr 05 23:50:47 2019

#	Modifying user name:	14062
#	Modification time:	Fri Apr 05 23:51:52 2019

@<TRIPOS>MOLECULE
PISM00257
   11    10     1     1     0
SMALL
GAST_HUCK


@<TRIPOS>ATOM
      1 O1         -2.7972   -5.4122   -1.2265 O.3       1 <1>        -0.2909 
      2 C2         -3.3855   -4.4646   -1.9587 C.2       1 <1>         0.2595 
      3 C3         -3.5726   -4.7663   -3.4243 C.3       1 <1>         0.1687 
      4 O4         -3.1920   -3.6529   -4.2593 O.3       1 <1>        -0.2801 
      5 N5         -3.8711   -2.4685   -4.0474 N.3       1 <1>        -0.2120 
      6 O6         -3.7661   -3.4111   -1.4709 O.2       1 <1>        -0.3679 
      7 H1         -2.7181   -5.1410   -0.3182 H         1 <1>         0.2540 
      8 H2         -4.6275   -5.0232   -3.5968 H         1 <1>         0.0841 
      9 H3         -2.9501   -5.6269   -3.7097 H         1 <1>         0.0841 
     10 H4         -3.7639   -2.1318   -3.0221 H         1 <1>         0.1502 
     11 H5         -4.9185   -2.5692   -4.2961 H         1 <1>         0.1502 
@<TRIPOS>BOND
     1    2    1 1    
     2    2    3 1    
     3    3    4 1    
     4    4    5 1    
     5    2    6 2    
     6    1    7 1    
     7    3    8 1    
     8    3    9 1    
     9    5   10 1    
    10    5   11 1    
@<TRIPOS>SUBSTRUCTURE
     1 ****        2 TEMP              0 ****  ****    0 ROOT 
@<TRIPOS>NORMAL
@<TRIPOS>FF_PBC
FORCE_FIELD_SETUP_FEATURE Force Field Setup information
v1.0  0 0.000000 0.000000 0.000000 0.000000 0.000000 0.000000 NONE 0 0 0 0 1 0 0 0 0 0 0 0 0
