#	Name:			PISM00652
#	Creating user name:	baoopengkun
#	Creation time:		Sat Jan 12 19:36:55 2019

#	Modifying user name:	baoopengkun
#	Modification time:	Sat Jan 12 19:37:17 2019

@<TRIPOS>MOLECULE
PISM00652
   24    24     1     1     0
SMALL
GAST_HUCK


@<TRIPOS>ATOM
      1 Cl1        -8.6743   -3.4733    0.4151 Cl        1 <1>        -0.0722 
      2 C2         -7.0105   -2.9280    0.3508 C.ar      1 <1>         0.0547 
      3 C3         -5.9888   -3.8174    0.0110 C.ar      1 <1>         0.0116 
      4 N4         -4.7192   -3.3791   -0.1103 N.ar      1 <1>        -0.2802 
      5 C5         -4.3864   -2.0895    0.1043 C.ar      1 <1>         0.1352 
      6 C6         -5.3545   -1.1841    0.5582 C.ar      1 <1>        -0.0110 
      7 C7         -6.6849   -1.6012    0.6397 C.ar      1 <1>        -0.0388 
      8 N8         -3.0955   -1.7585   -0.1280 N.pl3     1 <1>        -0.2217 
      9 C9         -2.7230   -0.5935   -0.5928 C.2       1 <1>         0.2249 
     10 O10        -3.5113    0.3017   -0.8481 O.2       1 <1>        -0.3744 
     11 C11        -1.2645   -0.2805   -0.8439 C.3       1 <1>         0.1436 
     12 C12        -0.4006   -1.5017   -1.0652 C.2       1 <1>         0.2538 
     13 O13        -0.8288   -2.5954   -0.7353 O.2       1 <1>        -0.3668 
     14 O14         0.8417   -1.4405   -1.5816 O.3       1 <1>        -0.2783 
     15 H1         -6.2093   -4.8660   -0.1577 H         1 <1>         0.0792 
     16 H2         -5.0937   -0.1740    0.8562 H         1 <1>         0.0624 
     17 H3         -7.4603   -0.9008    0.9288 H         1 <1>         0.0708 
     18 H4         -2.3866   -2.4942    0.0242 H         1 <1>         0.2155 
     19 H5         -0.8969    0.2594    0.0386 H         1 <1>         0.0764 
     20 H6         -1.2395    0.3847   -1.7168 H         1 <1>         0.0764 
     21 C21         1.3515   -0.1473   -1.9618 C.3       1 <1>         0.0659 
     22 H7          1.3697    0.5636   -1.1205 H         1 <1>         0.0577 
     23 H8          0.8101    0.2851   -2.8180 H         1 <1>         0.0577 
     24 H9          2.3892   -0.3116   -2.2833 H         1 <1>         0.0577 
@<TRIPOS>BOND
     1    2    1 1    
     2    2    3 ar   
     3    3    4 ar   
     4    4    5 ar   
     5    5    6 ar   
     6    6    7 ar   
     7    2    7 ar   
     8    5    8 1    
     9    8    9 1    
    10    9   10 2    
    11    9   11 1    
    12   11   12 1    
    13   12   13 2    
    14   12   14 1    
    15    3   15 1    
    16    6   16 1    
    17    7   17 1    
    18    8   18 1    
    19   11   19 1    
    20   11   20 1    
    21   14   21 1    
    22   21   22 1    
    23   21   23 1    
    24   21   24 1    
@<TRIPOS>SUBSTRUCTURE
     1 ****        2 TEMP              0 ****  ****    0 ROOT 
@<TRIPOS>NORMAL
@<TRIPOS>FF_PBC
FORCE_FIELD_SETUP_FEATURE Force Field Setup information
v1.0  0 0.000000 0.000000 0.000000 0.000000 0.000000 0.000000 NONE 0 0 0 0 1 0 0 0 0 0 0 0 0
