#	Name:			PISM00828.1
#	Creating user name:	baoopengkun
#	Creation time:		Sat Dec 15 02:58:59 2018

#	Modifying user name:	baoopengkun
#	Modification time:	Sat Dec 15 02:59:18 2018

@<TRIPOS>MOLECULE
PISM00828.1
   40    41     1     1     0
SMALL
GAST_HUCK


@<TRIPOS>ATOM
      1 Br1         0.9093   23.6435  -50.8568 Br        1 <1>        -0.0600 
      2 C2          0.8226   22.0265  -49.9571 C.ar      1 <1>         0.0012 
      3 C3         -0.4120   21.5314  -49.5266 C.ar      1 <1>        -0.0611 
      4 C4         -0.4775   20.3065  -48.8562 C.ar      1 <1>        -0.0298 
      5 C5          0.6889   19.5741  -48.6218 C.ar      1 <1>         0.1009 
      6 C6          1.9257   20.0784  -49.0332 C.ar      1 <1>        -0.0298 
      7 C7          1.9916   21.3012  -49.7076 C.ar      1 <1>        -0.0611 
      8 O8          0.6136   18.3416  -47.9770 O.3       1 <1>        -0.2718 
      9 C9          0.7463   17.2141  -48.8549 C.3       1 <1>         0.2207 
     10 C10        -0.4268   17.1485  -49.8004 C.2       1 <1>        -0.0063 
     11 C11        -1.1875   16.0765  -49.5678 C.2       1 <1>         0.0225 
     12 C12        -0.5661   15.3374  -48.4667 C.2       1 <1>         0.2238 
     13 N13         0.5420   15.9960  -48.0908 N.am      1 <1>        -0.1188 
     14 C14        -2.4404   15.6913  -50.3068 C.3       1 <1>        -0.0329 
     15 O15        -1.0144   14.2994  -48.0109 O.2       1 <1>        -0.3854 
     16 C16         1.4249   15.6581  -47.1308 C.2       1 <1>         0.3573 
     17 O17         2.4163   16.3312  -46.9030 O.2       1 <1>        -0.3680 
     18 O18         1.1097   14.5319  -46.4788 O.3       1 <1>        -0.2535 
     19 C19         1.9954   14.1047  -45.4192 C.3       1 <1>         0.0910 
     20 C20         2.0551   15.1299  -44.2496 C.3       1 <1>        -0.0320 
     21 C21         1.3218   12.8024  -44.9009 C.3       1 <1>        -0.0320 
     22 C22         3.4195   13.7513  -45.9384 C.3       1 <1>        -0.0320 
     23 H1         -1.3190   22.0976  -49.7127 H         1 <1>         0.0615 
     24 H2         -1.4321   19.9185  -48.5164 H         1 <1>         0.0549 
     25 H3          2.8327   19.5200  -48.8260 H         1 <1>         0.0549 
     26 H4          2.9506   21.6882  -50.0371 H         1 <1>         0.0615 
     27 H5          1.7104   17.1926  -49.3910 H         1 <1>         0.1160 
     28 H6         -0.6296   17.8891  -50.5733 H         1 <1>         0.0695 
     29 H7         -2.6973   14.6412  -50.1015 H         1 <1>         0.0348 
     30 H8         -2.2962   15.8155  -51.3906 H         1 <1>         0.0348 
     31 H9         -3.2709   16.3331  -49.9774 H         1 <1>         0.0348 
     32 H10         2.5683   14.6885  -43.3818 H         1 <1>         0.0260 
     33 H11         1.0339   15.4095  -43.9490 H         1 <1>         0.0260 
     34 H12         2.5965   16.0457  -44.5236 H         1 <1>         0.0260 
     35 H13         1.2481   12.0640  -45.7144 H         1 <1>         0.0260 
     36 H14         0.3032   13.0189  -44.5431 H         1 <1>         0.0260 
     37 H15         1.8941   12.3546  -44.0741 H         1 <1>         0.0260 
     38 H16         3.9969   13.2442  -45.1504 H         1 <1>         0.0260 
     39 H17         3.9872   14.6413  -46.2428 H         1 <1>         0.0260 
     40 H18         3.3418   13.0778  -46.8052 H         1 <1>         0.0260 
@<TRIPOS>BOND
     1    2    1 1    
     2    2    3 ar   
     3    3    4 ar   
     4    4    5 ar   
     5    5    6 ar   
     6    6    7 ar   
     7    2    7 ar   
     8    5    8 1    
     9    8    9 1    
    10    9   10 1    
    11   10   11 2    
    12   11   12 1    
    13   12   13 am   
    14    9   13 1    
    15   11   14 1    
    16   12   15 2    
    17   13   16 am   
    18   16   17 2    
    19   16   18 1    
    20   18   19 1    
    21   19   20 1    
    22   19   21 1    
    23   19   22 1    
    24    3   23 1    
    25    4   24 1    
    26    6   25 1    
    27    7   26 1    
    28    9   27 1    
    29   10   28 1    
    30   14   29 1    
    31   14   30 1    
    32   14   31 1    
    33   20   32 1    
    34   20   33 1    
    35   20   34 1    
    36   21   35 1    
    37   21   36 1    
    38   21   37 1    
    39   22   38 1    
    40   22   39 1    
    41   22   40 1    
@<TRIPOS>SUBSTRUCTURE
     1 ****        2 TEMP              0 ****  ****    0 ROOT 
@<TRIPOS>NORMAL
@<TRIPOS>FF_PBC
FORCE_FIELD_SETUP_FEATURE Force Field Setup information
v1.0  0 0.000000 0.000000 0.000000 0.000000 0.000000 0.000000 NONE 0 0 0 0 1 0 0 0 0 0 0 0 0
