#	Name:			PISM00455
#	Creating user name:	baoopengkun
#	Creation time:		Wed Feb 27 21:40:45 2019

#	Modifying user name:	baoopengkun
#	Modification time:	Wed Feb 27 21:46:55 2019

@<TRIPOS>MOLECULE
PISM00455
   58    61     1     1     0
SMALL
GAST_HUCK


@<TRIPOS>ATOM
      1 Cl1        17.2636   -4.3576   -5.7312 Cl        1 <1>        -0.0771 
      2 C2         17.5433   -3.3687   -7.1496 C.ar      1 <1>         0.0330 
      3 C3         18.2124   -3.8996   -8.2541 C.ar      1 <1>        -0.0546 
      4 C4         18.4285   -3.1127   -9.3891 C.ar      1 <1>        -0.0591 
      5 C5         18.0018   -1.7789   -9.4247 C.ar      1 <1>        -0.0350 
      6 C6         17.3280   -1.2562   -8.3129 C.ar      1 <1>        -0.0591 
      7 C7         17.0974   -2.0456   -7.1826 C.ar      1 <1>        -0.0546 
      8 C8         18.2579   -0.8987  -10.6640 C.3       1 <1>         0.0217 
      9 C9         19.7544   -0.8517  -11.0556 C.3       1 <1>         0.0263 
     10 C10        19.8912   -0.0094  -12.2906 C.2       1 <1>         0.0923 
     11 O11        20.9280    0.6071  -12.4687 O.2       1 <1>        -0.4144 
     12 C12        18.8023    0.0820  -13.2842 C.2       1 <1>         0.0195 
     13 C13        17.6334   -0.5465  -13.1052 C.2       1 <1>         0.0661 
     14 C14        17.4015   -1.3835  -11.8608 C.3       1 <1>         0.0263 
     15 N15        16.6595   -0.4754  -13.9809 N.pl3     1 <1>        -0.2571 
     16 C16        16.7234    0.2375  -15.0841 C.2       1 <1>         0.0627 
     17 C17        17.8256    0.9310  -15.4222 C.2       1 <1>         0.0474 
     18 C18        19.0377    0.8828  -14.5307 C.3       1 <1>         0.0268 
     19 C19        20.1532    0.1598  -15.2969 C.ar      1 <1>        -0.0047 
     20 C20        21.3655    0.7952  -15.5912 C.ar      1 <1>         0.1329 
     21 C21        22.3800    0.0978  -16.2522 C.ar      1 <1>        -0.0361 
     22 C22        22.1897   -1.2346  -16.6294 C.ar      1 <1>        -0.0718 
     23 C23        20.9731   -1.8653  -16.3577 C.ar      1 <1>        -0.0738 
     24 C24        19.9560   -1.1653  -15.7023 C.ar      1 <1>        -0.0622 
     25 F25        21.5697    2.0651  -15.2469 F         1 <1>        -0.1897 
     26 C26        15.4873    0.2489  -15.9697 C.3       1 <1>        -0.0001 
     27 C27        17.9589    1.7597  -16.6438 C.2       1 <1>         0.2188 
     28 O28        18.8912    2.5429  -16.7259 O.2       1 <1>        -0.3920 
     29 O29        17.0752    1.6492  -17.6445 O.3       1 <1>        -0.2855 
     30 C30        17.2890    2.5732  -18.7312 C.3       1 <1>         0.0972 
     31 C31        16.1755    2.3423  -19.7777 C.3       1 <1>         0.0747 
     32 O32        16.3157    3.3110  -20.8371 O.3       1 <1>        -0.3804 
     33 C33        15.3135    3.1784  -21.8639 C.3       1 <1>         0.0366 
     34 H1         18.5633   -4.9263   -8.2280 H         1 <1>         0.0606 
     35 H2         18.9296   -3.5583  -10.2406 H         1 <1>         0.0557 
     36 H3         16.9732   -0.2304   -8.3149 H         1 <1>         0.0557 
     37 H4         16.5716   -1.6334   -6.3274 H         1 <1>         0.0606 
     38 H5         17.9569    0.1413  -10.4459 H         1 <1>         0.0515 
     39 H6         20.1741   -1.8403  -11.2871 H         1 <1>         0.0495 
     40 H7         20.3335   -0.4082  -10.2296 H         1 <1>         0.0495 
     41 H8         17.6307   -2.4301  -12.1112 H         1 <1>         0.0528 
     42 H9         16.3498   -1.3283  -11.5357 H         1 <1>         0.0528 
     43 H10        15.7945   -1.0016  -13.7812 H         1 <1>         0.2223 
     44 H11        19.3235    1.9060  -14.2404 H         1 <1>         0.0522 
     45 H12        23.3175    0.5975  -16.4703 H         1 <1>         0.0581 
     46 H13        22.9838   -1.7779  -17.1321 H         1 <1>         0.0538 
     47 H14        20.8177   -2.8981  -16.6541 H         1 <1>         0.0561 
     48 H15        19.0099   -1.6601  -15.5075 H         1 <1>         0.0537 
     49 H16        15.1969    1.2837  -16.2058 H         1 <1>         0.0465 
     50 H17        14.6011   -0.2177  -15.5160 H         1 <1>         0.0465 
     51 H18        15.7041   -0.2962  -16.9007 H         1 <1>         0.0465 
     52 H19        18.2706    2.4146  -19.2078 H         1 <1>         0.0632 
     53 H20        17.2265    3.6165  -18.3788 H         1 <1>         0.0632 
     54 H21        15.1992    2.4522  -19.2777 H         1 <1>         0.0586 
     55 H22        16.2635    1.3143  -20.1654 H         1 <1>         0.0586 
     56 H23        15.4910    3.9642  -22.6131 H         1 <1>         0.0524 
     57 H24        14.2991    3.3109  -21.4557 H         1 <1>         0.0524 
     58 H25        15.3820    2.1993  -22.3634 H         1 <1>         0.0524 
@<TRIPOS>BOND
     1    2    1 1    
     2    2    3 ar   
     3    3    4 ar   
     4    4    5 ar   
     5    5    6 ar   
     6    6    7 ar   
     7    2    7 ar   
     8    5    8 1    
     9    8    9 1    
    10    9   10 1    
    11   10   11 2    
    12   10   12 1    
    13   12   13 2    
    14   13   14 1    
    15    8   14 1    
    16   13   15 1    
    17   15   16 1    
    18   16   17 2    
    19   17   18 1    
    20   12   18 1    
    21   18   19 1    
    22   19   20 ar   
    23   20   21 ar   
    24   21   22 ar   
    25   22   23 ar   
    26   23   24 ar   
    27   19   24 ar   
    28   20   25 1    
    29   16   26 1    
    30   17   27 1    
    31   27   28 2    
    32   27   29 1    
    33   29   30 1    
    34   30   31 1    
    35   31   32 1    
    36   32   33 1    
    37    3   34 1    
    38    4   35 1    
    39    6   36 1    
    40    7   37 1    
    41    8   38 1    
    42    9   39 1    
    43    9   40 1    
    44   14   41 1    
    45   14   42 1    
    46   15   43 1    
    47   18   44 1    
    48   21   45 1    
    49   22   46 1    
    50   23   47 1    
    51   24   48 1    
    52   26   49 1    
    53   26   50 1    
    54   26   51 1    
    55   30   52 1    
    56   30   53 1    
    57   31   54 1    
    58   31   55 1    
    59   33   56 1    
    60   33   57 1    
    61   33   58 1    
@<TRIPOS>SUBSTRUCTURE
     1 ****        2 TEMP              0 ****  ****    0 ROOT 
@<TRIPOS>NORMAL
@<TRIPOS>FF_PBC
FORCE_FIELD_SETUP_FEATURE Force Field Setup information
v1.0  0 0.000000 0.000000 0.000000 0.000000 0.000000 0.000000 NONE 0 0 0 0 1 0 0 0 0 0 0 0 0
