#	Name:			PISM01191
#	Creating user name:	baoopengkun
#	Creation time:		Tue Dec 18 22:17:15 2018

#	Modifying user name:	baoopengkun
#	Modification time:	Tue Dec 18 22:18:47 2018

@<TRIPOS>MOLECULE
PISM01191
   48    49     1     1     0
SMALL
GAST_HUCK


@<TRIPOS>ATOM
      1 C1         21.4973   27.7257  -30.8662 C.3       1 <1>         0.0609 
      2 O2         20.8272   28.9015  -31.3478 O.3       1 <1>        -0.3183 
      3 C3         19.4576   28.9268  -31.0885 C.ar      1 <1>         0.1051 
      4 C4         19.0032   29.5417  -29.9186 C.ar      1 <1>        -0.0376 
      5 C5         17.6395   29.5711  -29.6184 C.ar      1 <1>        -0.0745 
      6 C6         16.7275   28.9959  -30.5060 C.ar      1 <1>        -0.0376 
      7 C7         17.1791   28.4132  -31.6937 C.ar      1 <1>         0.1051 
      8 C8         18.5472   28.3465  -31.9824 C.ar      1 <1>         0.1127 
      9 C9         19.0050   27.6506  -33.2515 C.2       1 <1>         0.2238 
     10 O10        20.1600   27.8124  -33.6057 O.2       1 <1>        -0.3784 
     11 N11        18.1820   26.9014  -33.9393 N.pl3     1 <1>        -0.2009 
     12 C12        18.5366   26.2927  -35.0423 C.2       1 <1>         0.2690 
     13 O13        19.7525   26.3672  -35.5753 O.3       1 <1>        -0.0957 
     14 N14        19.7310   25.5836  -36.7525 N.2       1 <1>        -0.0925 
     15 C15        18.5491   25.1085  -36.8330 C.2       1 <1>         0.0267 
     16 C16        17.6882   25.5375  -35.7311 C.2       1 <1>        -0.0026 
     17 O17        16.2579   27.8881  -32.6055 O.3       1 <1>        -0.3183 
     18 C18        15.4929   28.8820  -33.3133 C.3       1 <1>         0.0609 
     19 C19        18.1542   24.2061  -37.9855 C.3       1 <1>        -0.0322 
     20 C20        16.7567   23.5676  -37.7278 C.3       1 <1>        -0.0816 
     21 C21        19.2458   23.0982  -38.1387 C.3       1 <1>        -0.0725 
     22 C22        19.4940   22.2649  -36.8506 C.3       1 <1>        -0.0718 
     23 C23        18.1110   25.1389  -39.2405 C.3       1 <1>        -0.0725 
     24 C24        17.6900   24.4604  -40.5730 C.3       1 <1>        -0.0718 
     25 H1         21.0855   26.8141  -31.3262 H         1 <1>         0.0581 
     26 H2         21.4124   27.6511  -29.7710 H         1 <1>         0.0581 
     27 H3         22.5610   27.8043  -31.1345 H         1 <1>         0.0581 
     28 H4         19.7188   29.9966  -29.2413 H         1 <1>         0.0464 
     29 H5         17.2913   30.0377  -28.7016 H         1 <1>         0.0599 
     30 H6         15.6680   29.0002  -30.2722 H         1 <1>         0.0464 
     31 H7         17.2147   26.7862  -33.5976 H         1 <1>         0.2174 
     32 H8         16.6435   25.3107  -35.5238 H         1 <1>         0.0282 
     33 H9         16.1597   29.5434  -33.8889 H         1 <1>         0.0581 
     34 H10        14.8818   29.4898  -32.6287 H         1 <1>         0.0581 
     35 H11        14.8207   28.3652  -34.0142 H         1 <1>         0.0581 
     36 H12        15.9659   24.3315  -37.7790 H         1 <1>         0.0144 
     37 H13        16.7101   23.0975  -36.7350 H         1 <1>         0.0144 
     38 H14        16.5337   22.7908  -38.4736 H         1 <1>         0.0144 
     39 H15        20.2006   23.5692  -38.4259 H         1 <1>         0.0177 
     40 H16        18.9660   22.3954  -38.9388 H         1 <1>         0.0177 
     41 H17        19.7644   22.9113  -36.0020 H         1 <1>         0.0223 
     42 H18        20.3246   21.5613  -37.0209 H         1 <1>         0.0223 
     43 H19        18.6069   21.6749  -36.5779 H         1 <1>         0.0223 
     44 H20        19.1058   25.5906  -39.3923 H         1 <1>         0.0177 
     45 H21        17.4038   25.9628  -39.0452 H         1 <1>         0.0177 
     46 H22        17.6947   25.2088  -41.3816 H         1 <1>         0.0223 
     47 H23        16.6739   24.0449  -40.5086 H         1 <1>         0.0223 
     48 H24        18.3878   23.6592  -40.8554 H         1 <1>         0.0223 
@<TRIPOS>BOND
     1    2    1 1    
     2    2    3 1    
     3    3    4 ar   
     4    4    5 ar   
     5    5    6 ar   
     6    6    7 ar   
     7    7    8 ar   
     8    3    8 ar   
     9    8    9 1    
    10    9   10 2    
    11    9   11 1    
    12   11   12 1    
    13   12   13 1    
    14   13   14 1    
    15   14   15 2    
    16   15   16 1    
    17   12   16 2    
    18    7   17 1    
    19   17   18 1    
    20   15   19 1    
    21   19   20 1    
    22   19   21 1    
    23   21   22 1    
    24   19   23 1    
    25   23   24 1    
    26    1   25 1    
    27    1   26 1    
    28    1   27 1    
    29    4   28 1    
    30    5   29 1    
    31    6   30 1    
    32   11   31 1    
    33   16   32 1    
    34   18   33 1    
    35   18   34 1    
    36   18   35 1    
    37   20   36 1    
    38   20   37 1    
    39   20   38 1    
    40   21   39 1    
    41   21   40 1    
    42   22   41 1    
    43   22   42 1    
    44   22   43 1    
    45   23   44 1    
    46   23   45 1    
    47   24   46 1    
    48   24   47 1    
    49   24   48 1    
@<TRIPOS>SUBSTRUCTURE
     1 ****        2 TEMP              0 ****  ****    0 ROOT 
@<TRIPOS>NORMAL
@<TRIPOS>FF_PBC
FORCE_FIELD_SETUP_FEATURE Force Field Setup information
v1.0  0 0.000000 0.000000 0.000000 0.000000 0.000000 0.000000 NONE 0 0 0 0 1 0 0 0 0 0 0 0 0
