#	Name:			PISM00063
#	Creating user name:	baoopengkun
#	Creation time:		Thu Dec 27 11:19:19 2018

#	Modifying user name:	baoopengkun
#	Modification time:	Thu Dec 27 11:22:01 2018

@<TRIPOS>MOLECULE
PISM00063
   37    38     1     1     0
SMALL
GAST_HUCK


@<TRIPOS>ATOM
      1 F1         -3.4480    9.2385  -10.7229 F         1 <1>        -0.1893 
      2 C2         -4.2762    9.5459   -9.7280 C.ar      1 <1>         0.1248 
      3 C3         -4.8413   10.8212   -9.6574 C.ar      1 <1>        -0.0349 
      4 C4         -5.7128   11.1430   -8.6127 C.ar      1 <1>        -0.0612 
      5 C5         -6.0276   10.1908   -7.6363 C.ar      1 <1>        -0.0369 
      6 C6         -5.4525    8.9163   -7.7073 C.ar      1 <1>        -0.0612 
      7 C7         -4.5814    8.5941   -8.7524 C.ar      1 <1>        -0.0349 
      8 C8         -6.9944   10.5554   -6.5040 C.3       1 <1>         0.0288 
      9 S9         -6.0341   11.5260   -5.2993 S.3       1 <1>        -0.1029 
     10 C10        -7.3235   12.2093   -4.1988 C.3       1 <1>         0.1902 
     11 S11        -8.3827   13.3884   -5.0343 S.2       1 <1>         0.0180 
     12 C12        -8.5435   14.5039   -3.7785 C.2       1 <1>         0.3504 
     13 N13        -7.6411   14.2238   -2.8188 N.am      1 <1>        -0.2141 
     14 N14        -8.1590   11.1705   -3.5642 N.3       1 <1>        -0.2983 
     15 N15        -9.4352   15.5164   -3.7314 N.am      1 <1>        -0.1350 
     16 C16        -9.4758   16.3480   -2.6697 C.2       1 <1>         0.2555 
     17 O17        -8.6995   16.1886   -1.7415 O.2       1 <1>        -0.3530 
     18 C18       -10.4822   17.4751   -2.6326 C.3       1 <1>         0.0522 
     19 C19       -10.4050   18.3037   -1.3236 C.3       1 <1>        -0.0466 
     20 C20        -6.7056   13.1284   -3.0994 C.3       1 <1>         0.1100 
     21 H1         -4.5994   11.5576  -10.4166 H         1 <1>         0.0587 
     22 H2         -6.1438   12.1380   -8.5623 H         1 <1>         0.0547 
     23 H3         -5.6770    8.1698   -6.9520 H         1 <1>         0.0547 
     24 H4         -4.1381    7.6054   -8.8114 H         1 <1>         0.0587 
     25 H5         -7.3987    9.6538   -6.0201 H         1 <1>         0.0532 
     26 H6         -7.8302   11.1497   -6.9029 H         1 <1>         0.0532 
     27 H7         -7.5756   14.7746   -1.9764 H         1 <1>         0.2549 
     28 H8         -8.8318   10.7222   -4.2814 H         1 <1>         0.1210 
     29 H9         -7.5388   10.4008   -3.1246 H         1 <1>         0.1210 
     30 H10       -10.0666   15.6400   -4.4964 H         1 <1>         0.2920 
     31 H11       -11.4937   17.0491   -2.7295 H         1 <1>         0.0517 
     32 H12       -10.2972   18.1399   -3.4915 H         1 <1>         0.0517 
     33 H13       -10.6020   17.6597   -0.4520 H         1 <1>         0.0255 
     34 H14       -11.1531   19.1123   -1.3387 H         1 <1>         0.0255 
     35 H15        -9.4053   18.7528   -1.2133 H         1 <1>         0.0255 
     36 H16        -6.4734   12.5438   -2.1945 H         1 <1>         0.0683 
     37 H17        -5.7680   13.5734   -3.4716 H         1 <1>         0.0683 
@<TRIPOS>BOND
     1    2    1 1    
     2    2    3 ar   
     3    3    4 ar   
     4    4    5 ar   
     5    6    5 ar   
     6    7    6 ar   
     7    2    7 ar   
     8    5    8 1    
     9    8    9 1    
    10    9   10 1    
    11   10   11 1    
    12   11   12 2    
    13   12   13 am   
    14   13   20 1    
    15   10   14 1    
    16   12   15 am   
    17   15   16 am   
    18   16   17 2    
    19   16   18 1    
    20   18   19 1    
    21   10   20 1    
    22    3   21 1    
    23    4   22 1    
    24    6   23 1    
    25    7   24 1    
    26    8   25 1    
    27    8   26 1    
    28   13   27 1    
    29   14   28 1    
    30   14   29 1    
    31   15   30 1    
    32   18   31 1    
    33   18   32 1    
    34   19   33 1    
    35   19   34 1    
    36   19   35 1    
    37   20   36 1    
    38   20   37 1    
@<TRIPOS>SUBSTRUCTURE
     1 ****        2 TEMP              0 ****  ****    0 ROOT 
@<TRIPOS>NORMAL
@<TRIPOS>FF_PBC
FORCE_FIELD_SETUP_FEATURE Force Field Setup information
v1.0  0 0.000000 0.000000 0.000000 0.000000 0.000000 0.000000 NONE 0 0 0 0 1 0 0 0 0 0 0 0 0
