#	Name:			PISM01040
#	Creating user name:	malab
#	Creation time:		Tue Jul 02 17:09:39 2019

#	Modifying user name:	malab
#	Modification time:	Tue Jul 02 17:11:51 2019

@<TRIPOS>MOLECULE
PISM01040
   35    37     1     1     0
SMALL
GAST_HUCK


@<TRIPOS>ATOM
      1 O1         -4.6533    1.8894   -3.7474 O.2       1 <1>        -0.3888 
      2 C2         -3.7362    2.5075   -3.2341 C.2       1 <1>         0.2428 
      3 C3         -3.7138    3.9766   -3.3150 C.2       1 <1>         0.0061 
      4 C4         -2.7265    4.6877   -2.7602 C.2       1 <1>        -0.0333 
      5 C5         -1.6349    3.9169   -2.0474 C.ar      1 <1>         0.0199 
      6 C6         -1.7090    2.5180   -2.0092 C.ar      1 <1>         0.1652 
      7 O7         -2.7702    1.8322   -2.6074 O.3       1 <1>        -0.2186 
      8 C8         -2.7011    6.1977   -2.8410 C.3       1 <1>        -0.0256 
      9 C9         -0.5583    4.5637   -1.4274 C.ar      1 <1>        -0.0297 
     10 C10         0.4363    3.8268   -0.7807 C.ar      1 <1>         0.1560 
     11 C11         0.3700    2.4312   -0.7571 C.ar      1 <1>         0.1659 
     12 C12        -0.7093    1.7838   -1.3632 C.ar      1 <1>         0.1992 
     13 F13         1.4439    4.4624   -0.1873 F         1 <1>        -0.1963 
     14 F14        -0.7846    0.4543   -1.3237 F         1 <1>        -0.1957 
     15 O15         1.3686    1.6806   -0.1335 O.3       1 <1>        -0.2663 
     16 C16         2.6328    1.7339   -0.8083 C.3       1 <1>         0.2435 
     17 O17         2.4557    1.3504   -2.1868 O.3       1 <1>        -0.2336 
     18 C18         3.1386    0.2195   -2.3331 C.2       1 <1>         0.2324 
     19 O19         3.1802   -0.3688   -3.3997 O.2       1 <1>        -0.3822 
     20 C20         3.8346   -0.2601   -1.1425 C.2       1 <1>         0.0196 
     21 C21         3.5270    0.6638   -0.2341 C.2       1 <1>         0.0150 
     22 C22         3.9472    0.7375    1.2108 C.3       1 <1>        -0.0224 
     23 C23         4.6847   -1.4923   -0.9913 C.3       1 <1>        -0.0421 
     24 H1         -4.5355    4.4574   -3.8455 H         1 <1>         0.0410 
     25 H2         -1.7846    6.5253   -3.3541 H         1 <1>         0.0431 
     26 H3         -2.7215    6.6225   -1.8262 H         1 <1>         0.0431 
     27 H4         -3.5610    6.6053   -3.3942 H         1 <1>         0.0431 
     28 H5         -0.4711    5.6434   -1.4334 H         1 <1>         0.0563 
     29 H6          3.1164    2.7222   -0.7456 H         1 <1>         0.1226 
     30 H7          4.5006    1.6714    1.3895 H         1 <1>         0.0429 
     31 H8          4.5913   -0.1110    1.4848 H         1 <1>         0.0429 
     32 H9          3.0544    0.7226    1.8537 H         1 <1>         0.0429 
     33 H10         5.7061   -1.2079   -0.6980 H         1 <1>         0.0303 
     34 H11         4.7283   -2.0432   -1.9428 H         1 <1>         0.0303 
     35 H12         4.2542   -2.1490   -0.2208 H         1 <1>         0.0303 
@<TRIPOS>BOND
     1    2    1 2    
     2    2    3 1    
     3    3    4 2    
     4    4    5 1    
     5    5    6 ar   
     6    6    7 1    
     7    2    7 1    
     8    4    8 1    
     9    5    9 ar   
    10    9   10 ar   
    11   10   11 ar   
    12   11   12 ar   
    13    6   12 ar   
    14   10   13 1    
    15   12   14 1    
    16   11   15 1    
    17   15   16 1    
    18   16   17 1    
    19   17   18 1    
    20   18   19 2    
    21   18   20 1    
    22   20   21 2    
    23   16   21 1    
    24   21   22 1    
    25   20   23 1    
    26    3   24 1    
    27    8   25 1    
    28    8   26 1    
    29    8   27 1    
    30    9   28 1    
    31   16   29 1    
    32   22   30 1    
    33   22   31 1    
    34   22   32 1    
    35   23   33 1    
    36   23   34 1    
    37   23   35 1    
@<TRIPOS>SUBSTRUCTURE
     1 ****        2 TEMP              0 ****  ****    0 ROOT 
@<TRIPOS>NORMAL
@<TRIPOS>FF_PBC
FORCE_FIELD_SETUP_FEATURE Force Field Setup information
v1.0  0 0.000000 0.000000 0.000000 0.000000 0.000000 0.000000 NONE 0 0 0 0 1 0 0 0 0 0 0 0 0
