#	Name:			PISM01118
#	Creating user name:	14062
#	Creation time:		Fri Jul 12 01:50:08 2019

#	Modifying user name:	14062
#	Modification time:	Fri Jul 12 01:53:43 2019

@<TRIPOS>MOLECULE
PISM01118
  107   110     1     1     0
SMALL
GAST_HUCK


@<TRIPOS>ATOM
      1 C1        -20.6426   -0.3047    4.0343 C.2       1 <1>         0.2372 
      2 O2        -19.5699    0.4055    3.6740 O.3       1 <1>        -0.2673 
      3 C3        -19.4952    1.0229    2.3745 C.3       1 <1>         0.1278 
      4 C4        -20.6658    2.0895    2.1163 C.3       1 <1>         0.0150 
      5 C5        -22.1514    1.6453    1.6318 C.3       1 <1>        -0.0037 
      6 C6        -22.7000    0.7383    2.8070 C.3       1 <1>         0.1052 
      7 C7        -21.8614   -0.5258    3.1719 C.3       1 <1>         0.0792 
      8 O8        -20.6039   -0.7979    5.1493 O.2       1 <1>        -0.3703 
      9 C9        -23.3155    2.7484    1.2528 C.3       1 <1>         0.0085 
     10 C10       -24.4512    2.1690    0.3213 C.2       1 <1>        -0.0125 
     11 C11       -24.7256    0.8790    0.0376 C.2       1 <1>        -0.0086 
     12 C12       -25.4363    3.1504   -0.3100 C.3       1 <1>         0.1343 
     13 C13       -26.3827    3.5144    0.8519 C.3       1 <1>         0.0257 
     14 C14       -25.5139    4.2466    1.9123 C.3       1 <1>         0.1142 
     15 C15       -24.2508    3.4156    2.3780 C.3       1 <1>         0.1043 
     16 C16       -26.4969    2.8095   -1.3331 C.2       1 <1>         0.1298 
     17 C17       -27.7595    3.6113   -1.1751 C.3       1 <1>         0.0247 
     18 C18       -27.4974    4.3649    0.1601 C.3       1 <1>        -0.0058 
     19 O19       -26.3615    1.9812   -2.2195 O.2       1 <1>        -0.3495 
     20 H1        -20.2626    2.6665    1.2740 H         1 <1>         0.0358 
     21 C21       -20.6223    3.0395    3.3655 C.3       1 <1>         0.0545 
     22 C22       -19.1351   -0.0768    1.3151 C.3       1 <1>        -0.0284 
     23 C23       -18.1243    1.7849    2.5418 C.3       1 <1>         0.1102 
     24 C24       -21.8530    0.9058    0.2553 C.3       1 <1>        -0.0625 
     25 O25       -24.0626    0.3010    2.5754 O.3       1 <1>        -0.2714 
     26 H5        -22.7033    1.3868    3.6980 H         1 <1>         0.0674 
     27 H6        -21.6517   -1.1704    2.3185 H         1 <1>         0.0548 
     28 H7        -22.4875   -1.1683    3.8081 H         1 <1>         0.0548 
     29 C29       -22.5350    3.9304    0.5800 C.3       1 <1>        -0.0774 
     30 H9        -24.2248   -0.0214    0.3620 H         1 <1>         0.1826 
     31 H10       -25.5539    0.5651   -0.5902 H         1 <1>         0.1826 
     32 C32       -23.1988    5.3368    3.3361 C.2       1 <1>         0.2276 
     33 C33       -26.5636    6.4772   -1.0219 C.2       1 <1>         0.0719 
     34 O34       -26.4428    4.4578    3.0032 O.3       1 <1>        -0.2694 
     35 H14       -25.1975    5.1832    1.4339 H         1 <1>         0.0671 
     36 H15       -24.6843    2.5817    2.9336 H         1 <1>         0.0594 
     37 O37       -23.6714    4.0919    3.5129 O.3       1 <1>        -0.2799 
     38 H17       -28.6132    2.9195   -1.1019 H         1 <1>         0.0498 
     39 H18       -27.9303    4.2788   -2.0321 H         1 <1>         0.0498 
     40 C40       -27.1602    5.8287   -0.0175 C.2       1 <1>        -0.0469 
     41 H20       -28.4187    4.3801    0.7658 H         1 <1>         0.0416 
     42 O42       -22.6580    5.8618    4.2945 O.2       1 <1>        -0.3548 
     43 C43       -26.3023    5.5910    3.7050 C.2       1 <1>         0.2634 
     44 H23       -18.3761   -0.7577    1.7284 H         1 <1>         0.0262 
     45 H24       -18.7032    0.3766    0.4093 H         1 <1>         0.0262 
     46 H25       -19.9340   -0.7491    1.0095 H         1 <1>         0.0262 
     47 H26       -18.1178    2.4074    3.4487 H         1 <1>         0.0646 
     48 O48       -17.0136    0.8717    2.7084 O.3       1 <1>        -0.2738 
     49 C49       -15.8197    1.4662    2.8404 C.2       1 <1>         0.2307 
     50 O50       -15.6621    2.6760    2.8068 O.2       1 <1>        -0.3707 
     51 C51       -14.6645    0.5280    3.0404 C.3       1 <1>         0.0372 
     52 H27       -17.9332    2.4230    1.6626 H         1 <1>         0.0646 
     53 H28       -13.7191    1.0875    3.1000 H         1 <1>         0.0483 
     54 H29       -14.6136   -0.1765    2.1976 H         1 <1>         0.0483 
     55 H30       -14.8103   -0.0334    3.9746 H         1 <1>         0.0483 
     56 C56       -19.7511    4.2815    3.2617 C.2       1 <1>         0.2338 
     57 O57       -19.2721    4.6042    2.1881 O.2       1 <1>        -0.3704 
     58 O58       -19.4840    5.0781    4.3142 O.3       1 <1>        -0.2802 
     59 C59       -19.9482    4.6632    5.6144 C.3       1 <1>         0.0658 
     60 C60       -24.7506   -0.0855    3.6679 C.2       1 <1>         0.2310 
     61 O61       -24.3540    0.0842    4.8087 O.2       1 <1>        -0.3707 
     62 C62       -26.0759   -0.7514    3.4262 C.3       1 <1>         0.0372 
     63 O63       -24.8073    4.2706   -0.9360 O.3       1 <1>        -0.4154 
     64 O64       -25.5210    6.4819    3.4132 O.2       1 <1>        -0.3675 
     65 C65       -27.2358    5.7384    4.8868 C.3       1 <1>         0.1574 
     66 C66       -26.7500    4.9818    6.1623 C.3       1 <1>         0.0007 
     67 C67       -27.8399    4.9329    7.2794 C.3       1 <1>        -0.0487 
     68 C68       -28.3360    6.3218    7.7627 C.3       1 <1>        -0.0648 
     69 C69       -27.0967    2.2595    1.4732 C.3       1 <1>        -0.0599 
     70 O70       -26.4104    7.7960   -0.8617 O.3       1 <1>        -0.2806 
     71 C71       -26.9668    7.9808    0.3400 C.2       1 <1>         0.0724 
     72 C72       -27.4553    6.8940    0.9386 C.2       1 <1>        -0.0638 
     73 H2        -20.4421    2.4798    4.2905 H         1 <1>         0.0522 
     74 H3        -21.5917    3.4652    3.4900 H         1 <1>         0.0522 
     75 H4        -22.4146    1.2637   -0.6143 H         1 <1>         0.0229 
     76 H11       -22.0073   -0.1770    0.3029 H         1 <1>         0.0229 
     77 H12       -20.8481    1.0673   -0.1442 H         1 <1>         0.0229 
     78 H13       -23.2346    5.9514    2.4392 H         1 <1>         0.1697 
     79 H16       -26.2071    6.0064   -1.9362 H         1 <1>         0.0827 
     80 H19       -19.4180    3.7631    5.9619 H         1 <1>         0.0577 
     81 H21       -21.0359    4.5062    5.6651 H         1 <1>         0.0577 
     82 H22       -19.6994    5.4803    6.3071 H         1 <1>         0.0577 
     83 H31       -26.0980   -1.7087    3.9671 H         1 <1>         0.0483 
     84 H32       -26.2379   -0.9461    2.3558 H         1 <1>         0.0483 
     85 H33       -26.8823   -0.1085    3.8083 H         1 <1>         0.0483 
     86 H34       -24.2953    4.0118   -1.6977 H         1 <1>         0.1958 
     87 H35       -28.2064    5.3169    4.5828 H         1 <1>         0.0856 
     88 O88       -27.4525    7.1397    5.1454 O.3       1 <1>        -0.3696 
     89 H37       -25.8650    5.5110    6.5556 H         1 <1>         0.0349 
     90 C90       -26.3179    3.5232    5.8314 C.3       1 <1>        -0.0578 
     91 H39       -27.4154    4.4158    8.1568 H         1 <1>         0.0268 
     92 H40       -28.7063    4.3468    6.9309 H         1 <1>         0.0268 
     93 H41       -27.4825    6.9756    7.9997 H         1 <1>         0.0230 
     94 H42       -28.9478    6.2050    8.6717 H         1 <1>         0.0230 
     95 H43       -28.9655    6.8083    7.0031 H         1 <1>         0.0230 
     96 H44       -27.6604    1.6821    0.7278 H         1 <1>         0.0230 
     97 H45       -27.8118    2.5654    2.2517 H         1 <1>         0.0230 
     98 H46       -26.4054    1.5569    1.9415 H         1 <1>         0.0230 
     99 H47       -27.0181    8.9678    0.7992 H         1 <1>         0.0945 
    100 H48       -27.9535    6.8195    1.9041 H         1 <1>         0.0307 
    101 H36       -26.6357    7.5951    5.3275 H         1 <1>         0.2135 
    102 H38       -27.1328    2.9828    5.3254 H         1 <1>         0.0235 
    103 H49       -26.0511    2.9733    6.7472 H         1 <1>         0.0235 
    104 H50       -25.4328    3.5132    5.1831 H         1 <1>         0.0235 
    105 H8        -21.7524    4.3200    1.2359 H         1 <1>         0.0147 
    106 H51       -23.1192    4.8293    0.3792 H         1 <1>         0.0147 
    107 H52       -22.0655    3.6185   -0.3636 H         1 <1>         0.0147 
@<TRIPOS>BOND
     1    1    2 1    
     2    3    2 1    
     3    4    3 1    
     4    5    4 1    
     5    5    6 1    
     6    6    7 1    
     7    7    1 1    
     8    1    8 2    
     9    9    5 1    
    10   10    9 1    
    11   10   11 2    
    12   12   10 1    
    13   13   12 1    
    14   13   14 1    
    15   14   15 1    
    16   15    9 1    
    17   12   16 1    
    18   17   16 1    
    19   18   17 1    
    20   18   13 1    
    21   16   19 2    
    22    4   20 1    
    23    4   21 1    
    24    3   22 1    
    25    3   23 1    
    26    5   24 1    
    27    6   25 1    
    28    6   26 1    
    29    7   27 1    
    30    7   28 1    
    31    9   29 1    
    32   11   30 1    
    33   11   31 1    
    34   37   32 1    
    35   40   33 2    
    36   14   34 1    
    37   14   35 1    
    38   15   36 1    
    39   15   37 1    
    40   17   38 1    
    41   17   39 1    
    42   18   40 1    
    43   18   41 1    
    44   32   42 2    
    45   34   43 1    
    46   22   44 1    
    47   22   45 1    
    48   22   46 1    
    49   23   47 1    
    50   23   48 1    
    51   48   49 1    
    52   49   50 2    
    53   49   51 1    
    54   23   52 1    
    55   51   53 1    
    56   51   54 1    
    57   51   55 1    
    58   21   56 1    
    59   56   57 2    
    60   56   58 1    
    61   58   59 1    
    62   25   60 1    
    63   60   61 2    
    64   60   62 1    
    65   12   63 1    
    66   43   64 2    
    67   43   65 1    
    68   65   66 1    
    69   66   67 1    
    70   67   68 1    
    71   13   69 1    
    72   33   70 1    
    73   70   71 1    
    74   71   72 2    
    75   40   72 1    
    76   21   73 1    
    77   21   74 1    
    78   24   75 1    
    79   24   76 1    
    80   24   77 1    
    81   32   78 1    
    82   33   79 1    
    83   59   80 1    
    84   59   81 1    
    85   59   82 1    
    86   62   83 1    
    87   62   84 1    
    88   62   85 1    
    89   63   86 1    
    90   65   87 1    
    91   65   88 1    
    92   66   89 1    
    93   66   90 1    
    94   67   91 1    
    95   67   92 1    
    96   68   93 1    
    97   68   94 1    
    98   68   95 1    
    99   69   96 1    
   100   69   97 1    
   101   69   98 1    
   102   71   99 1    
   103   72  100 1    
   104   88  101 1    
   105   90  102 1    
   106   90  103 1    
   107   90  104 1    
   108   29  105 1    
   109   29  106 1    
   110   29  107 1    
@<TRIPOS>SUBSTRUCTURE
     1 ****        2 TEMP              0 ****  ****    0 ROOT 
@<TRIPOS>NORMAL
@<TRIPOS>FF_PBC
FORCE_FIELD_SETUP_FEATURE Force Field Setup information
v1.0  0 0.000000 0.000000 0.000000 0.000000 0.000000 0.000000 NONE 0 0 0 0 1 0 0 0 0 0 0 0 0
