#	Name:			PISM00435
#	Creating user name:	malab
#	Creation time:		Tue Apr 02 16:15:57 2019

#	Modifying user name:	malab
#	Modification time:	Tue Apr 02 16:16:25 2019

@<TRIPOS>MOLECULE
PISM00435
   58    59     2     1     0
SMALL
GAST_HUCK


@<TRIPOS>ATOM
      1 C1         -4.7589    1.4889    8.3763 C.3       2 AZIDO      -0.0592 
      2 C2         -5.1688    2.8208    9.0736 C.3       2 AZIDO      -0.0038 
      3 C3         -5.3590    2.6225   10.5533 C.2       2 AZIDO       0.0968 
      4 C4         -4.8141    1.4207   11.2086 C.2       2 AZIDO      -0.0135 
      5 C5         -3.9579    0.5981   10.5847 C.2       2 AZIDO      -0.0884 
      6 C6         -3.5452    0.8441    9.1422 C.3       2 AZIDO       0.0099 
      7 C7         -6.0013    0.5364    8.3500 C.3       2 AZIDO      -0.0740 
      8 C8         -4.3947    1.8184    6.9021 C.3       2 AZIDO      -0.0740 
      9 N9         -5.9533    3.4791   11.2914 N.2       2 AZIDO      -0.1363 
     10 C10        -3.3446   -0.5939   11.2864 C.3       2 AZIDO      -0.0428 
     11 C11        -2.3297    1.7499    9.2317 C.2       2 AZIDO      -0.1113 
     12 C12        -1.1158    1.5983    8.6698 C.2       2 AZIDO      -0.0326 
     13 C13        -0.5728    0.5458    7.7766 C.2       2 AZIDO       0.0083 
     14 C14        -1.2198    0.2800    6.4350 C.3       2 AZIDO      -0.0163 
     15 C15         0.5256   -0.1533    8.1057 C.2       2 AZIDO       0.0506 
     16 C16         1.3454   -0.0015    9.3329 C.2       2 AZIDO       0.2626 
     17 O17         1.0421    0.8030   10.1961 O.2       2 AZIDO      -0.3540 
     18 O18         2.4500   -0.7304    9.5342 O.3       2 AZIDO      -0.2939 
     19 N19        -6.3103    4.7323   10.9108 N.pl3     2 AZIDO      -0.1510 
     20 C20        -6.9318    5.4944   11.7668 C.2       2 AZIDO       0.2651 
     21 O21        -3.1077   -0.3816    8.5366 O.3       2 AZIDO      -0.4814 
     22 O22        -7.3288    5.0814   12.8427 O.2       2 AZIDO      -0.3579 
     23 C23        -7.1262    6.9700   11.4970 C.ar      2 AZIDO       0.1016 
     24 C24        -6.4797    7.8453   12.3740 C.ar      2 AZIDO       0.0051 
     25 C25        -6.4769    9.2211   12.1341 C.ar      2 AZIDO       0.0973 
     26 C26        -7.2298    9.7393   11.0708 C.ar      2 AZIDO       0.2132 
     27 C27        -7.9348    8.8693   10.2306 C.ar      2 AZIDO       0.2582 
     28 C28        -7.8812    7.4834   10.4355 C.ar      2 AZIDO       0.0477 
     29 O29        -7.2849   11.1152   10.8206 O.3       2 AZIDO      -0.2826 
     30 I30        -5.3435   10.4297   13.3526 I         2 AZIDO      -0.0421 
     31 ****       -8.6546    9.4195    9.2301 N.2       1 AZIDO       0.0329 
     32 N2         -9.2888    8.7798    8.4482 N.1       1 AZIDO      -0.1250 
     33 ****       -9.9266    8.1501    7.6606 N.2       1 AZIDO      -0.0167 
     34 H1         -6.1074    3.1838    8.6280 H         2 AZIDO       0.0436 
     35 H2         -4.4031    3.5953    8.9219 H         2 AZIDO       0.0436 
     36 H3         -5.1179    1.2360   12.2392 H         2 AZIDO       0.0958 
     37 H4         -6.8737    1.0440    7.9108 H         2 AZIDO       0.0219 
     38 H5         -6.2862    0.2007    9.3573 H         2 AZIDO       0.0219 
     39 H6         -5.8169   -0.3553    7.7344 H         2 AZIDO       0.0219 
     40 H7         -4.1332    0.8977    6.3616 H         2 AZIDO       0.0219 
     41 H8         -3.5510    2.5218    6.8597 H         2 AZIDO       0.0219 
     42 H9         -5.2480    2.2835    6.3856 H         2 AZIDO       0.0219 
     43 H10        -3.7825   -1.5273   10.9063 H         2 AZIDO       0.0402 
     44 H11        -3.5025   -0.5616   12.3749 H         2 AZIDO       0.0402 
     45 H12        -2.2595   -0.6062   11.1018 H         2 AZIDO       0.0402 
     46 H13        -2.4495    2.6368    9.8555 H         2 AZIDO       0.0471 
     47 H14        -0.3806    2.3719    8.8986 H         2 AZIDO       0.0968 
     48 H15        -0.4640    0.0795    5.6603 H         2 AZIDO       0.0428 
     49 H16        -1.7680    1.1697    6.1064 H         2 AZIDO       0.0428 
     50 H17        -1.8995   -0.5824    6.4755 H         2 AZIDO       0.0428 
     51 H18         0.8654   -0.9107    7.3998 H         2 AZIDO       0.0849 
     52 H19         2.6650   -1.3419    8.8412 H         2 AZIDO       0.2515 
     53 H20        -5.9887    5.1312   10.0187 H         2 AZIDO       0.2505 
     54 H21        -3.7685   -1.0622    8.5183 H         2 AZIDO       0.1757 
     55 H22        -5.9608    7.4493   13.2434 H         2 AZIDO       0.1018 
     56 H23        -8.4210    6.8059    9.7825 H         2 AZIDO       0.1003 
     57 H24        -7.2814   11.6660   11.5969 H         2 AZIDO       0.2771 
     58 H25       -10.4463    8.6242    6.9320 H         1 AZIDO       0.3586 
@<TRIPOS>BOND
     1    1    2 1    
     2    2    3 1    
     3    3    4 1    
     4    4    5 2    
     5    5    6 1    
     6    6    1 1    
     7    1    7 1    
     8    1    8 1    
     9    3    9 2    
    10    5   10 1    
    11    6   11 1    
    12   11   12 2    
    13   12   13 1    
    14   13   14 1    
    15   13   15 2    
    16   15   16 1    
    17   16   17 2    
    18   16   18 1    
    19    9   19 1    
    20   19   20 1    
    21    6   21 1    
    22   20   22 2    
    23   20   23 1    
    24   23   24 ar   
    25   24   25 ar   
    26   25   26 ar   
    27   26   27 ar   
    28   27   28 ar   
    29   23   28 ar   
    30   26   29 1    
    31   25   30 1    
    32   31   32 2    
    33   32   33 2    
    34   27   31 1    
    35    2   34 1    
    36    2   35 1    
    37    4   36 1    
    38    7   37 1    
    39    7   38 1    
    40    7   39 1    
    41    8   40 1    
    42    8   41 1    
    43    8   42 1    
    44   10   43 1    
    45   10   44 1    
    46   10   45 1    
    47   11   46 1    
    48   12   47 1    
    49   14   48 1    
    50   14   49 1    
    51   14   50 1    
    52   15   51 1    
    53   18   52 1    
    54   19   53 1    
    55   21   54 1    
    56   24   55 1    
    57   28   56 1    
    58   29   57 1    
    59   33   58 1    
@<TRIPOS>SUBSTRUCTURE
     1 AZIDO      31 PERM              0 ****  ****    1  
     2 AZIDO      16 PERM              0 ****  ****    1 ROOT 
@<TRIPOS>NORMAL
@<TRIPOS>FF_PBC
FORCE_FIELD_SETUP_FEATURE Force Field Setup information
v1.0  0 0.000000 0.000000 0.000000 0.000000 0.000000 0.000000 NONE 0 0 0 0 1 0 0 0 0 0 0 0 0
