#	Name:			PISM00574
#	Creating user name:	baoopengkun
#	Creation time:		Wed Dec 19 10:55:03 2018

#	Modifying user name:	baoopengkun
#	Modification time:	Wed Dec 19 10:59:55 2018

@<TRIPOS>MOLECULE
PISM00574
   13    13     1     1     0
SMALL
USER_CHARGES


@<TRIPOS>ATOM
      1 F1         22.1491   28.7539  -42.6305 F         1 <1>         0.0000 
      2 C2         21.4585   28.2952  -41.5900 C.ar      1 <1>         0.0000 
      3 C3         20.7156   27.1174  -41.7073 C.ar      1 <1>         0.0000 
      4 C4         19.9934   26.6446  -40.6066 C.ar      1 <1>         0.0000 
      5 C5         20.0381   27.3722  -39.4131 C.ar      1 <1>         0.0000 
      6 C6         20.7963   28.5443  -39.3480 C.ar      1 <1>         0.0000 
      7 N7         21.4827   28.9760  -40.4258 N.ar      1 <1>         0.0000 
      8 F8         20.8456   29.2441  -38.2176 F         1 <1>         0.0000 
      9 C9         19.1797   25.3720  -40.7030 C.2       1 <1>         0.0000 
     10 O10        19.1416   24.7370  -41.7444 O.2       1 <1>         0.0000 
     11 O11        18.4946   24.9292  -39.6519 O.3       1 <1>         0.0000 
     12 H1         20.7060   26.5812  -42.6501 H         1 <1>         0.0000 
     13 H2         19.4916   27.0379  -38.5379 H         1 <1>         0.0000 
@<TRIPOS>BOND
     1    2    1 1    
     2    2    3 ar   
     3    3    4 ar   
     4    4    5 ar   
     5    5    6 ar   
     6    6    7 ar   
     7    2    7 ar   
     8    6    8 1    
     9    4    9 1    
    10    9   10 2    
    11    9   11 1    
    12    3   12 1    
    13    5   13 1    
@<TRIPOS>SUBSTRUCTURE
     1 ****        2 TEMP              0 ****  ****    0 ROOT 
@<TRIPOS>NORMAL
@<TRIPOS>FF_PBC
FORCE_FIELD_SETUP_FEATURE Force Field Setup information
v1.0  0 0.000000 0.000000 0.000000 0.000000 0.000000 0.000000 NONE 0 0 0 0 0 0 0 0 0 0 0 0 0
