#	Name:			PISM01185
#	Creating user name:	baoopengkun
#	Creation time:		Tue Dec 18 21:55:57 2018

#	Modifying user name:	baoopengkun
#	Modification time:	Tue Dec 18 21:57:30 2018

@<TRIPOS>MOLECULE
PISM01185
   43    44     1     1     0
SMALL
GAST_HUCK


@<TRIPOS>ATOM
      1 O1          8.8652   27.9698  -36.8178 O.2       1 <1>        -0.3862 
      2 C2         10.0277   28.1939  -36.5267 C.2       1 <1>         0.2049 
      3 N3         11.0397   27.6563  -37.2345 N.am      1 <1>        -0.1997 
      4 C4         12.3483   27.8431  -36.9781 C.2       1 <1>         0.2049 
      5 C5         12.7575   28.7446  -35.8447 C.3       1 <1>         0.0475 
      6 C6         11.6899   28.7125  -34.7180 C.3       1 <1>        -0.0039 
      7 C7         10.3255   29.0906  -35.3531 C.3       1 <1>         0.0475 
      8 O8         13.2111   27.3027  -37.6488 O.2       1 <1>        -0.3862 
      9 C9         12.1071   29.6682  -33.5576 C.3       1 <1>        -0.0174 
     10 C10        11.1131   29.7721  -32.3567 C.3       1 <1>         0.0741 
     11 C11        11.6782   30.6973  -31.2286 C.3       1 <1>         0.0589 
     12 C12        12.6156   29.9886  -30.2056 C.3       1 <1>        -0.0291 
     13 C13        11.8509   29.2598  -29.0634 C.3       1 <1>        -0.0391 
     14 C14        10.9009   30.2592  -28.3497 C.3       1 <1>        -0.0318 
     15 C15         9.8879   30.9080  -29.3325 C.3       1 <1>         0.0303 
     16 C16        10.6033   31.4977  -30.5252 C.2       1 <1>         0.1132 
     17 O17        10.3287   32.6238  -30.9092 O.2       1 <1>        -0.3909 
     18 H18        12.2926   31.4648  -31.7303 H         1 <1>         0.0555 
     19 C19        12.8539   28.6451  -28.0468 C.3       1 <1>        -0.0621 
     20 C20         8.7320   29.9583  -29.7485 C.3       1 <1>        -0.0464 
     21 O21        10.8424   28.4667  -31.8210 O.3       1 <1>        -0.3891 
     22 H1         10.8012   27.0630  -38.0032 H         1 <1>         0.2256 
     23 H2         12.8734   29.7611  -36.2508 H         1 <1>         0.0512 
     24 H3         13.7335   28.4135  -35.4547 H         1 <1>         0.0512 
     25 H4         11.6404   27.6736  -34.3495 H         1 <1>         0.0351 
     26 H5         10.3329   30.1330  -35.7059 H         1 <1>         0.0512 
     27 H6          9.5093   28.9730  -34.6247 H         1 <1>         0.0512 
     28 H7         12.2513   30.6744  -33.9844 H         1 <1>         0.0297 
     29 H8         13.0782   29.3225  -33.1705 H         1 <1>         0.0297 
     30 H9         10.1782   30.2408  -32.7115 H         1 <1>         0.0622 
     31 H10        13.2560   30.7531  -29.7336 H         1 <1>         0.0296 
     32 H11        13.2764   29.2784  -30.7265 H         1 <1>         0.0296 
     33 H12        11.2611   28.4221  -29.4644 H         1 <1>         0.0301 
     34 H13        11.5137   31.0570  -27.8974 H         1 <1>         0.0295 
     35 H14        10.3552   29.7532  -27.5366 H         1 <1>         0.0295 
     36 H15         9.4121   31.7488  -28.7962 H         1 <1>         0.0527 
     37 H16        13.5169   27.9247  -28.5512 H         1 <1>         0.0233 
     38 H17        12.3141   28.1149  -27.2464 H         1 <1>         0.0233 
     39 H19        13.4759   29.4283  -27.5866 H         1 <1>         0.0233 
     40 H20         8.0516   30.4840  -30.4367 H         1 <1>         0.0257 
     41 H21         8.1566   29.6498  -28.8617 H         1 <1>         0.0257 
     42 H22         9.0911   29.0531  -30.2494 H         1 <1>         0.0257 
     43 H23        10.3531   27.8895  -32.3968 H         1 <1>         0.2100 
@<TRIPOS>BOND
     1    2    1 2    
     2    2    3 am   
     3    3    4 am   
     4    4    5 1    
     5    5    6 1    
     6    6    7 1    
     7    2    7 1    
     8    4    8 2    
     9    6    9 1    
    10    9   10 1    
    11   10   11 1    
    12   11   12 1    
    13   12   13 1    
    14   13   14 1    
    15   14   15 1    
    16   15   16 1    
    17   11   16 1    
    18   16   17 2    
    19   11   18 1    
    20   13   19 1    
    21   15   20 1    
    22   10   21 1    
    23    3   22 1    
    24    5   23 1    
    25    5   24 1    
    26    6   25 1    
    27    7   26 1    
    28    7   27 1    
    29    9   28 1    
    30    9   29 1    
    31   10   30 1    
    32   12   31 1    
    33   12   32 1    
    34   13   33 1    
    35   14   34 1    
    36   14   35 1    
    37   15   36 1    
    38   19   37 1    
    39   19   38 1    
    40   19   39 1    
    41   20   40 1    
    42   20   41 1    
    43   20   42 1    
    44   21   43 1    
@<TRIPOS>SUBSTRUCTURE
     1 ****        2 TEMP              0 ****  ****    0 ROOT 
@<TRIPOS>NORMAL
@<TRIPOS>FF_PBC
FORCE_FIELD_SETUP_FEATURE Force Field Setup information
v1.0  0 0.000000 0.000000 0.000000 0.000000 0.000000 0.000000 NONE 0 0 0 0 1 0 0 0 0 0 0 0 0
