#	Name:			PISM00904
#	Creating user name:	baoopengkun
#	Creation time:		Fri Dec 14 10:23:48 2018

#	Modifying user name:	baoopengkun
#	Modification time:	Fri Dec 14 10:28:35 2018

@<TRIPOS>MOLECULE
PISM00904
   39    41     1     1     0
SMALL
GAST_HUCK


@<TRIPOS>ATOM
      1 C1         20.2068    3.6429   -8.7299 C.ar      1 <1>        -0.0196 
      2 C2         20.2546    2.5525   -7.8778 C.ar      1 <1>        -0.0198 
      3 C3         20.7233    2.6786   -6.5700 C.ar      1 <1>        -0.0710 
      4 C4         21.1413    3.9442   -6.1412 C.ar      1 <1>        -0.0737 
      5 C5         21.0948    5.0526   -7.0011 C.ar      1 <1>        -0.0545 
      6 C6         20.6220    4.9078   -8.3126 C.ar      1 <1>        -0.0630 
      7 C7         19.7407    1.3272   -8.6157 C.3       1 <1>         0.0787 
      8 C8         19.6620    3.1922  -10.0755 C.3       1 <1>         0.0801 
      9 C9         21.5577    6.4300   -6.5068 C.3       1 <1>        -0.0036 
     10 C10        20.3578    7.1807   -5.8797 C.3       1 <1>         0.0414 
     11 N11        20.7908    8.4961   -5.4134 N.am      1 <1>        -0.2605 
     12 C12        20.9605    9.5007   -6.2974 C.2       1 <1>         0.3248 
     13 O13        20.7498    9.3864   -7.4934 O.2       1 <1>        -0.3773 
     14 O14        21.3771   10.6364   -5.7237 O.3       1 <1>        -0.2139 
     15 C15        21.6404   11.6978   -6.6571 C.3       1 <1>         0.2419 
     16 C16        20.4494   12.0635   -7.5124 C.2       1 <1>        -0.0022 
     17 C17        20.7686   11.9693   -8.8023 C.2       1 <1>         0.0291 
     18 C18        22.1661   11.5465   -8.7861 C.2       1 <1>         0.2494 
     19 O19        22.6924   11.3548   -7.5818 O.3       1 <1>        -0.2315 
     20 C20        19.9031   12.2432  -10.0013 C.3       1 <1>        -0.0323 
     21 O21        22.8135   11.3828   -9.8062 O.2       1 <1>        -0.3691 
     22 O22        19.9202    1.7713   -9.9812 O.3       1 <1>        -0.3585 
     23 H1         20.7603    1.8187   -5.9096 H         1 <1>         0.0521 
     24 H2         21.5044    4.0626   -5.1254 H         1 <1>         0.0482 
     25 H3         20.5739    5.7507   -8.9935 H         1 <1>         0.0478 
     26 H4         18.6771    1.1699   -8.3784 H         1 <1>         0.0698 
     27 H5         20.3222    0.4173   -8.4049 H         1 <1>         0.0698 
     28 H6         20.1873    3.6441  -10.9300 H         1 <1>         0.0710 
     29 H7         18.5830    3.4044  -10.1292 H         1 <1>         0.0710 
     30 H8         21.9688    7.0122   -7.3467 H         1 <1>         0.0432 
     31 H9         22.3571    6.3198   -5.7572 H         1 <1>         0.0432 
     32 H10        19.9585    6.5856   -5.0408 H         1 <1>         0.0540 
     33 H11        19.5523    7.2808   -6.6269 H         1 <1>         0.0540 
     34 H12        20.9942    8.6323   -4.4421 H         1 <1>         0.1869 
     35 H13        21.9570   12.5843   -6.0850 H         1 <1>         0.1194 
     36 H14        19.4751   12.3579   -7.1248 H         1 <1>         0.0704 
     37 H15        20.5234   12.5966  -10.8385 H         1 <1>         0.0347 
     38 H16        19.1490   13.0098   -9.7678 H         1 <1>         0.0347 
     39 H17        19.3940   11.3146  -10.2992 H         1 <1>         0.0347 
@<TRIPOS>BOND
     1    2    1 ar   
     2    2    3 ar   
     3    3    4 ar   
     4    4    5 ar   
     5    5    6 ar   
     6    1    6 ar   
     7    2    7 1    
     8    1    8 1    
     9    5    9 1    
    10    9   10 1    
    11   10   11 1    
    12   11   12 am   
    13   12   13 2    
    14   12   14 1    
    15   14   15 1    
    16   15   16 1    
    17   16   17 2    
    18   17   18 1    
    19   18   19 1    
    20   15   19 1    
    21   17   20 1    
    22   18   21 2    
    23    8   22 1    
    24    7   22 1    
    25    3   23 1    
    26    4   24 1    
    27    6   25 1    
    28    7   26 1    
    29    7   27 1    
    30    8   28 1    
    31    8   29 1    
    32    9   30 1    
    33    9   31 1    
    34   10   32 1    
    35   10   33 1    
    36   11   34 1    
    37   15   35 1    
    38   16   36 1    
    39   20   37 1    
    40   20   38 1    
    41   20   39 1    
@<TRIPOS>SUBSTRUCTURE
     1 ****        2 TEMP              0 ****  ****    0 ROOT 
@<TRIPOS>NORMAL
@<TRIPOS>FF_PBC
FORCE_FIELD_SETUP_FEATURE Force Field Setup information
v1.0  0 0.000000 0.000000 0.000000 0.000000 0.000000 0.000000 NONE 0 0 0 0 1 0 0 0 0 0 0 0 0
