#	Name:			PISM00596
#	Creating user name:	baoopengkun
#	Creation time:		Mon Dec 10 11:56:20 2018

#	Modifying user name:	baoopengkun
#	Modification time:	Mon Dec 10 11:56:40 2018

@<TRIPOS>MOLECULE
PISM00596
   37    39     1     2     0
SMALL
GAST_HUCK


@<TRIPOS>ATOM
      1 C1         -2.2647   11.5025   -0.4955 C.ar      1 <1>        -0.0348 
      2 C2         -1.6167   11.1092    0.6785 C.ar      1 <1>        -0.0180 
      3 C3         -1.8532   11.7985    1.8709 C.ar      1 <1>         0.0714 
      4 C4         -2.7392   12.8794    1.8883 C.ar      1 <1>        -0.0180 
      5 C5         -3.3880   13.2720    0.7139 C.ar      1 <1>        -0.0348 
      6 C6         -3.1498   12.5856   -0.4810 C.ar      1 <1>         0.0068 
      7 C7         -3.8549   13.0061   -1.7767 C.3       1 <1>         0.1921 
      8 C8         -5.1602   12.1983   -1.9467 C.3       1 <1>         0.1073 
      9 N9         -4.9166   10.7803   -1.7209 N.pl3     1 <1>        -0.1814 
     10 N10        -4.5610    9.8566   -2.6571 N.2       1 <1>        -0.1908 
     11 C11        -4.4309    8.6763   -2.1763 C.2       1 <1>         0.0618 
     12 N12        -4.7540    8.9103   -0.7959 N.2       1 <1>        -0.2870 
     13 C13        -5.0246   10.1208   -0.6076 C.2       1 <1>         0.1270 
     14 O14        -4.1031   14.4158   -1.8367 O.3       1 <1>        -0.3814 
     15 C15        -2.8472   15.0534   -2.1038 C.3       1 <1>         0.0668 
     16 C16        -2.0317   13.9455   -2.8217 C.3       1 <1>         0.0960 
     17 O17        -2.9913   12.8834   -2.9120 O.3       1 <1>        -0.3761 
     18 Cl18       -1.0402   11.3078    3.3428 Cl        1 <1>        -0.0420 
     19 H1         -2.0838   10.9632   -1.4210 H         1 <1>         0.0849 
     20 H2         -0.9306   10.2684    0.6657 H         1 <1>         0.0703 
     21 H3         -2.9221   13.4125    2.8158 H         1 <1>         0.0703 
     22 H4         -4.0782   14.1098    0.7307 H         1 <1>         0.0849 
     23 H5         -5.5421   12.3515   -2.9668 H         1 <1>         0.0595 
     24 H6         -5.9081   12.5735   -1.2319 H         1 <1>         0.0595 
     25 H7         -4.1532    7.7511   -2.6789 H         1 <1>         0.0863 
     26 H8         -5.3051   10.5380    0.3588 H         1 <1>         0.1361 
     27 H11        -2.3676   15.3524   -1.1577 H         1 <1>         0.0576 
     28 C28        -1.5131   14.3503   -4.2231 C.3       1 <1>         0.0746 
     29 H9         -3.0248   15.9487   -2.7185 H         1 <1>         0.0576 
     30 H10        -1.1819   13.6212   -2.1970 H         1 <1>         0.0631 
     31 C31        -0.1501   13.5814   -6.0559 C.3       1 <1>         0.0366 
     32 H13         0.4917   12.7382   -6.3509 H         1 <1>         0.0524 
     33 O34        -0.6522   13.3103   -4.7336 O.3       1 <1>        -0.3804 
     34 H15        -0.9470   15.2917   -4.1362 H         1 <1>         0.0586 
     35 H16        -2.3836   14.5075   -4.8802 H         1 <1>         0.0586 
     36 H12         0.4534   14.5022   -6.0758 H         1 <1>         0.0524 
     37 H17        -0.9712   13.6646   -6.7849 H         1 <1>         0.0524 
@<TRIPOS>BOND
     1    1    2 ar   
     2    2    3 ar   
     3    4    3 ar   
     4    5    4 ar   
     5    6    5 ar   
     6    6    1 ar   
     7    7    6 1    
     8    7    8 1    
     9    8    9 1    
    10    9   10 1    
    11   10   11 2    
    12   12   11 1    
    13   13   12 2    
    14    9   13 1    
    15    7   14 1    
    16   15   14 1    
    17   16   15 1    
    18   16   17 1    
    19   17    7 1    
    20    3   18 1    
    21    1   19 1    
    22    2   20 1    
    23    4   21 1    
    24    5   22 1    
    25    8   23 1    
    26    8   24 1    
    27   11   25 1    
    28   13   26 1    
    29   15   27 1    
    30   28   16 1    
    31   15   29 1    
    32   16   30 1    
    33   33   31 1    
    34   31   32 1    
    35   28   33 1    
    36   28   34 1    
    37   28   35 1    
    38   31   36 1    
    39   31   37 1    
@<TRIPOS>SUBSTRUCTURE
     1 ****        2 TEMP              0 ****  ****    0 ROOT 
@<TRIPOS>NORMAL
@<TRIPOS>FF_PBC
FORCE_FIELD_SETUP_FEATURE Force Field Setup information
v1.0  0 0.000000 0.000000 0.000000 0.000000 0.000000 0.000000 NONE 0 0 0 0 1 0 0 0 0 0 0 0 0
@<TRIPOS>RENDERING_ATTRS
ANTIALIASED_LINES 
*
