#	Name:			PISM00815.1
#	Creating user name:	baoopengkun
#	Creation time:		Fri Nov 30 17:22:57 2018

#	Modifying user name:	baoopengkun
#	Modification time:	Fri Nov 30 17:23:29 2018

@<TRIPOS>MOLECULE
PISM00815.1
   34    35     1     2     0
SMALL
GAST_HUCK


@<TRIPOS>ATOM
      1 C1          6.1420    0.5693    1.8028 C.ar      1 <1>        -0.0642 
      2 C2          6.6417    1.7908    1.3422 C.ar      1 <1>        -0.0555 
      3 C3          6.4635    2.1596    0.0064 C.ar      1 <1>         0.0327 
      4 C4          5.7922    1.3017   -0.8685 C.ar      1 <1>        -0.0555 
      5 C5          5.3066    0.0732   -0.4111 C.ar      1 <1>        -0.0642 
      6 C6          5.4675   -0.2921    0.9306 C.ar      1 <1>        -0.0285 
      7 H7          5.6507    1.5912   -1.9049 H         1 <1>         0.0604 
      8 C8          4.9337   -1.6057    1.4626 C.2       1 <1>         0.0837 
      9 C9          5.7472   -2.4388    2.3764 C.2       1 <1>         0.2399 
     10 O10         7.0265   -2.7788    2.1345 O.3       1 <1>        -0.2864 
     11 C11         7.5892   -2.3723    0.8716 C.3       1 <1>         0.0638 
     12 O12         5.2165   -2.8650    3.3880 O.2       1 <1>        -0.3769 
     13 C13         3.7036   -2.0280    1.1418 C.2       1 <1>         0.1067 
     14 O14         2.9244   -1.2794    0.3462 O.3       1 <1>        -0.2488 
     15 C15         1.6394   -1.8557    0.0492 C.3       1 <1>         0.2460 
     16 C16         1.7862   -3.0837   -0.8221 C.2       1 <1>         0.0005 
     17 C17         1.2617   -2.8692   -2.0270 C.2       1 <1>         0.0294 
     18 C18         0.7593   -1.5035   -1.9413 C.2       1 <1>         0.2497 
     19 O19         0.9344   -0.9032   -0.7711 O.3       1 <1>        -0.2292 
     20 C20         1.2078   -3.8069   -3.2022 C.3       1 <1>        -0.0323 
     21 O21         0.2077   -0.9480   -2.8754 O.2       1 <1>        -0.3691 
     22 H1          6.2784    0.2919    2.8437 H         1 <1>         0.0554 
     23 H2          7.1674    2.4549    2.0205 H         1 <1>         0.0604 
     24 Cl24        7.0813    3.6939   -0.5703 Cl        1 <1>        -0.0770 
     25 H4          4.8129   -0.5949   -1.1091 H         1 <1>         0.0554 
     26 H5          8.5529   -2.8942    0.7787 H         1 <1>         0.0574 
     27 H6          7.8024   -1.2951    0.8342 H         1 <1>         0.0574 
     28 H7          6.9609   -2.6677    0.0163 H         1 <1>         0.0574 
     29 H8          3.3752   -2.9830    1.5607 H         1 <1>         0.1338 
     30 H9          1.0418   -2.0515    0.9559 H         1 <1>         0.1227 
     31 H10         2.2580   -4.0175   -0.5193 H         1 <1>         0.0707 
     32 H11         2.1504   -4.3684   -3.2849 H         1 <1>         0.0347 
     33 H12         1.0496   -3.2394   -4.1317 H         1 <1>         0.0347 
     34 H13         0.3761   -4.5146   -3.0690 H         1 <1>         0.0347 
@<TRIPOS>BOND
     1    2    1 ar   
     2    2    3 ar   
     3    3    4 ar   
     4    4    5 ar   
     5    5    6 ar   
     6    1    6 ar   
     7    4    7 1    
     8    6    8 1    
     9    8    9 1    
    10    9   10 1    
    11   10   11 1    
    12    9   12 2    
    13    8   13 2    
    14   13   14 1    
    15   14   15 1    
    16   15   16 1    
    17   16   17 2    
    18   17   18 1    
    19   18   19 1    
    20   15   19 1    
    21   17   20 1    
    22   18   21 2    
    23    1   22 1    
    24    2   23 1    
    25    3   24 1    
    26    5   25 1    
    27   11   26 1    
    28   11   27 1    
    29   11   28 1    
    30   13   29 1    
    31   15   30 1    
    32   16   31 1    
    33   20   32 1    
    34   20   33 1    
    35   20   34 1    
@<TRIPOS>SUBSTRUCTURE
     1 ****        2 TEMP              0 ****  ****    0 ROOT 
@<TRIPOS>NORMAL
@<TRIPOS>FF_PBC
FORCE_FIELD_SETUP_FEATURE Force Field Setup information
v1.0  0 0.000000 0.000000 0.000000 0.000000 0.000000 0.000000 NONE 0 0 0 0 1 0 0 0 0 0 0 0 0
@<TRIPOS>RENDERING_ATTRS
ANTIALIASED_LINES 
*
