#	Name:			PISM00785.1
#	Creating user name:	baoopengkun
#	Creation time:		Sat Dec 15 01:09:24 2018

#	Modifying user name:	baoopengkun
#	Modification time:	Sat Dec 15 01:12:55 2018

@<TRIPOS>MOLECULE
PISM00785.1
   38    41     1     1     0
SMALL
GAST_HUCK


@<TRIPOS>ATOM
      1 C1         25.9246   14.4329  -30.2309 C.ar      1 <1>        -0.0019 
      2 C2         27.2945   14.2223  -30.0055 C.ar      1 <1>        -0.0652 
      3 C3         27.7509   13.1732  -29.1956 C.ar      1 <1>        -0.0392 
      4 C4         26.7882   12.3428  -28.6206 C.ar      1 <1>         0.0688 
      5 C5         25.4361   12.5598  -28.8502 C.ar      1 <1>        -0.0065 
      6 C6         24.9622   13.5969  -29.6506 C.ar      1 <1>        -0.0600 
      7 C7         24.8037   11.4518  -28.0519 C.2       1 <1>        -0.0172 
      8 C8         25.7997   10.7729  -27.4933 C.2       1 <1>         0.1044 
      9 N9         26.9652   11.2723  -27.8095 N.pl3     1 <1>        -0.2662 
     10 C10        28.2520   10.7557  -27.3601 C.3       1 <1>         0.0372 
     11 C11        25.2449    9.6793  -26.7016 C.2       1 <1>         0.1398 
     12 O12        25.8391    8.8450  -26.0384 O.2       1 <1>        -0.4040 
     13 C13        23.7850    9.7992  -26.8733 C.2       1 <1>         0.0279 
     14 C14        23.4098   10.9716  -27.7627 C.3       1 <1>        -0.0034 
     15 C15        22.8901    8.9776  -26.3164 C.2       1 <1>         0.0829 
     16 O16        21.5833    9.1837  -26.5374 O.3       1 <1>        -0.2667 
     17 C17        20.7223    8.2423  -25.8724 C.3       1 <1>         0.2401 
     18 C18        20.8531    8.3140  -24.3693 C.2       1 <1>        -0.0007 
     19 C19        21.2000    7.1251  -23.8794 C.2       1 <1>         0.0293 
     20 C20        21.2961    6.2780  -25.0642 C.2       1 <1>         0.2496 
     21 O21        21.0498    6.8820  -26.2211 O.3       1 <1>        -0.2302 
     22 C22        21.4288    6.7392  -22.4436 C.3       1 <1>        -0.0323 
     23 O23        21.5881    5.0965  -25.0034 O.2       1 <1>        -0.3691 
     24 Br24       25.3789   15.8356  -31.3108 Br        1 <1>        -0.0605 
     25 H2         28.0176   14.8861  -30.4684 H         1 <1>         0.0572 
     26 H3         28.8096   13.0142  -29.0235 H         1 <1>         0.0551 
     27 H4         23.9000   13.7433  -29.8117 H         1 <1>         0.0598 
     28 H5         28.7849   11.5370  -26.7975 H         1 <1>         0.0555 
     29 H6         28.8547   10.4635  -28.2333 H         1 <1>         0.0555 
     30 H7         28.1332    9.8763  -26.7086 H         1 <1>         0.0555 
     31 H8         22.8215   11.7312  -27.2266 H         1 <1>         0.0475 
     32 H9         22.8932   10.6504  -28.6796 H         1 <1>         0.0475 
     33 H10        23.2868    8.1670  -25.7005 H         1 <1>         0.1132 
     34 H11        19.6798    8.4503  -26.1626 H         1 <1>         0.1214 
     35 H12        20.6858    9.2128  -23.7772 H         1 <1>         0.0706 
     36 H13        21.2876    5.6553  -22.3169 H         1 <1>         0.0347 
     37 H14        20.7224    7.2692  -21.7873 H         1 <1>         0.0347 
     38 H15        22.4571    7.0024  -22.1548 H         1 <1>         0.0347 
@<TRIPOS>BOND
     1    2    1 ar   
     2    2    3 ar   
     3    3    4 ar   
     4    4    5 ar   
     5    5    6 ar   
     6    1    6 ar   
     7    5    7 1    
     8    7    8 2    
     9    8    9 1    
    10    4    9 1    
    11    9   10 1    
    12    8   11 1    
    13   11   12 2    
    14   11   13 1    
    15   13   14 1    
    16    7   14 1    
    17   13   15 2    
    18   15   16 1    
    19   16   17 1    
    20   17   18 1    
    21   18   19 2    
    22   19   20 1    
    23   20   21 1    
    24   17   21 1    
    25   19   22 1    
    26   20   23 2    
    27    1   24 1    
    28    2   25 1    
    29    3   26 1    
    30    6   27 1    
    31   10   28 1    
    32   10   29 1    
    33   10   30 1    
    34   14   31 1    
    35   14   32 1    
    36   15   33 1    
    37   17   34 1    
    38   18   35 1    
    39   22   36 1    
    40   22   37 1    
    41   22   38 1    
@<TRIPOS>SUBSTRUCTURE
     1 ****        2 TEMP              0 ****  ****    0 ROOT 
@<TRIPOS>NORMAL
@<TRIPOS>FF_PBC
FORCE_FIELD_SETUP_FEATURE Force Field Setup information
v1.0  0 0.000000 0.000000 0.000000 0.000000 0.000000 0.000000 NONE 0 0 0 0 1 0 0 0 0 0 0 0 0
