#	Name:			PISM00773
#	Creating user name:	baoopengkun
#	Creation time:		Sat Jan 05 22:21:59 2019

#	Modifying user name:	baoopengkun
#	Modification time:	Sat Jan 05 22:24:05 2019

@<TRIPOS>MOLECULE
PISM00773
   39    41     1     1     0
SMALL
GAST_HUCK


@<TRIPOS>ATOM
      1 C1         -0.8669   15.2556   -3.2801 C.3       1 <1>        -0.0240 
      2 C2         -1.8840   16.1587   -4.0111 C.3       1 <1>        -0.0149 
      3 C3         -2.4853   15.1979   -4.9955 C.2       1 <1>        -0.0648 
      4 C4         -1.7163   13.9067   -5.1270 C.3       1 <1>         0.0391 
      5 C5         -0.4048   14.2364   -4.3564 C.3       1 <1>         0.0130 
      6 C6         -3.5889   15.4842   -5.6961 C.2       1 <1>        -0.1285 
      7 C7          0.3488   13.0329   -3.8209 C.2       1 <1>        -0.0675 
      8 C8          0.9036   12.9970   -2.6001 C.2       1 <1>        -0.1286 
      9 C9          0.4679   11.8323   -4.7350 C.3       1 <1>        -0.0173 
     10 C10        -0.6832   10.8348   -4.4401 C.3       1 <1>        -0.0336 
     11 C11        -2.0295   11.3259   -5.0332 C.3       1 <1>         0.0335 
     12 C12        -2.4972   12.7070   -4.5159 C.3       1 <1>         0.1082 
     13 O13        -3.8841   12.7206   -4.8832 O.3       1 <1>        -0.2688 
     14 C14        -3.2592   10.4162   -4.7679 C.3       1 <1>         0.1852 
     15 C15        -4.3355   11.4637   -4.9312 C.2       1 <1>         0.2909 
     16 O16        -5.5133   11.2055   -5.1155 O.2       1 <1>        -0.3093 
     17 C17        -3.3846    9.8336   -3.3290 C.3       1 <1>         0.0815 
     18 O18        -2.3774    8.8556   -3.0063 O.3       1 <1>        -0.3933 
     19 O19        -3.3800    9.3909   -5.7761 O.3       1 <1>        -0.3812 
     20 H1         -1.3838   14.7294   -2.4609 H         1 <1>         0.0323 
     21 H2         -0.0393   15.8486   -2.8568 H         1 <1>         0.0323 
     22 H3         -1.3653   16.9516   -4.5736 H         1 <1>         0.0462 
     23 H4         -2.6249   16.6116   -3.3325 H         1 <1>         0.0462 
     24 H5         -1.5280   13.7301   -6.1984 H         1 <1>         0.0553 
     25 H6          0.2752   14.7689   -5.0439 H         1 <1>         0.0527 
     26 H7         -3.9990   14.7790   -6.4180 H         1 <1>         0.0075 
     27 H8         -4.0994   16.4371   -5.5604 H         1 <1>         0.0075 
     28 H9          1.4300   12.1088   -2.2516 H         1 <1>         0.0075 
     29 H10         0.8701   13.8244   -1.8950 H         1 <1>         0.0075 
     30 H11         1.4268   11.3242   -4.5377 H         1 <1>         0.0460 
     31 H12         0.4822   12.1314   -5.7947 H         1 <1>         0.0460 
     32 H13        -0.7556   10.7028   -3.3495 H         1 <1>         0.0295 
     33 H14        -0.4456    9.8562   -4.8892 H         1 <1>         0.0295 
     34 H15        -1.9265   11.3875   -6.1306 H         1 <1>         0.0348 
     35 H16        -2.4530   12.7441   -3.4160 H         1 <1>         0.0683 
     36 H17        -4.3837    9.3785   -3.2176 H         1 <1>         0.0571 
     37 H18        -3.3021   10.6369   -2.5820 H         1 <1>         0.0571 
     38 H19        -2.4397    8.0565   -3.5198 H         1 <1>         0.2093 
     39 H20        -2.6476    8.7854   -5.7816 H         1 <1>         0.2079 
@<TRIPOS>BOND
     1    2    1 1    
     2    2    3 1    
     3    3    4 1    
     4    4    5 1    
     5    1    5 1    
     6    3    6 2    
     7    5    7 1    
     8    7    8 2    
     9    7    9 1    
    10    9   10 1    
    11   10   11 1    
    12   11   12 1    
    13    4   12 1    
    14   12   13 1    
    15   11   14 1    
    16   14   15 1    
    17   13   15 1    
    18   15   16 2    
    19   14   17 1    
    20   17   18 1    
    21   14   19 1    
    22    1   20 1    
    23    1   21 1    
    24    2   22 1    
    25    2   23 1    
    26    4   24 1    
    27    5   25 1    
    28    6   26 1    
    29    6   27 1    
    30    8   28 1    
    31    8   29 1    
    32    9   30 1    
    33    9   31 1    
    34   10   32 1    
    35   10   33 1    
    36   11   34 1    
    37   12   35 1    
    38   17   36 1    
    39   17   37 1    
    40   18   38 1    
    41   19   39 1    
@<TRIPOS>SUBSTRUCTURE
     1 ****        2 TEMP              0 ****  ****    0 ROOT 
@<TRIPOS>NORMAL
@<TRIPOS>FF_PBC
FORCE_FIELD_SETUP_FEATURE Force Field Setup information
v1.0  0 0.000000 0.000000 0.000000 0.000000 0.000000 0.000000 NONE 0 0 0 0 1 0 0 0 0 0 0 0 0
