#	Name:			PISM00286
#	Creating user name:	baoopengkun
#	Creation time:		Sun Dec 16 03:19:57 2018

#	Modifying user name:	baoopengkun
#	Modification time:	Sun Dec 16 03:23:48 2018

@<TRIPOS>MOLECULE
PISM00286
   50    52     1     1     0
SMALL
GAST_HUCK


@<TRIPOS>ATOM
      1 C1        -17.6637   15.4085   43.9698 C.ar      1 <1>        -0.0664 
      2 C2        -18.5877   16.2876   43.3927 C.ar      1 <1>        -0.0387 
      3 C3        -19.1405   17.3054   44.1782 C.ar      1 <1>         0.0346 
      4 C4        -18.8550   17.3757   45.5433 C.ar      1 <1>        -0.0513 
      5 C5        -17.9923   16.4475   46.1355 C.ar      1 <1>        -0.0261 
      6 C6        -17.3603   15.4937   45.3317 C.ar      1 <1>        -0.0650 
      7 C7        -17.7529   16.4675   47.6483 C.3       1 <1>         0.1200 
      8 S8        -18.7503   15.1992   48.4548 S.o2      1 <1>         0.0668 
      9 O9        -18.7563   15.4969   49.8734 O.2       1 <1>        -0.1483 
     10 O10       -18.2872   13.8936   48.0367 O.2       1 <1>        -0.1483 
     11 N11       -20.2711   15.5060   47.8678 N.am      1 <1>        -0.1984 
     12 C12       -20.7556   15.3072   46.5408 C.ar      1 <1>         0.0440 
     13 C13       -20.1912   14.3628   45.6759 C.ar      1 <1>        -0.0617 
     14 C14       -20.6965   14.1860   44.3843 C.ar      1 <1>        -0.0607 
     15 C15       -21.8877   14.8096   43.9932 C.ar      1 <1>         0.0505 
     16 C16       -22.3670   15.8474   44.8001 C.ar      1 <1>        -0.0322 
     17 C17       -21.8272   16.0743   46.0707 C.ar      1 <1>        -0.0529 
     18 C18       -23.4885   16.7285   44.2530 C.3       1 <1>        -0.0077 
     19 C19       -23.3426   16.7572   42.7151 C.3       1 <1>         0.0497 
     20 C20       -23.2875   15.3366   42.2228 C.2       1 <1>         0.1999 
     21 O21       -23.9220   15.0676   41.2154 O.2       1 <1>        -0.3812 
     22 N22       -22.5801   14.4468   42.8763 N.pl3     1 <1>        -0.2378 
     23 C23       -22.6110   13.0525   42.4055 C.3       1 <1>         0.0446 
     24 C24       -23.9764   12.4188   42.7880 C.3       1 <1>        -0.0331 
     25 C25       -24.0736   10.9402   42.3277 C.3       1 <1>        -0.0632 
     26 H26       -16.6394   14.8082   45.7660 H         1 <1>         0.0542 
     27 H27       -17.1782   14.6492   43.3653 H         1 <1>         0.0540 
     28 C28       -19.0001   16.1442   41.9224 C.3       1 <1>        -0.0337 
     29 Cl29      -20.1976   18.5095   43.4708 Cl        1 <1>        -0.0789 
     30 H30       -19.3173   18.1554   46.1389 H         1 <1>         0.0545 
     31 H1        -18.0335   17.4417   48.0749 H         1 <1>         0.0674 
     32 H2        -16.6931   16.2833   47.8780 H         1 <1>         0.0674 
     33 H3        -20.8939   15.9312   48.5247 H         1 <1>         0.2114 
     34 H4        -19.3578   13.7481   45.9808 H         1 <1>         0.0398 
     35 H5        -20.1358   13.5660   43.6947 H         1 <1>         0.0470 
     36 H6        -22.2445   16.8555   46.6966 H         1 <1>         0.0392 
     37 H7        -23.4254   17.7522   44.6558 H         1 <1>         0.0425 
     38 H8        -24.4543   16.2849   44.5433 H         1 <1>         0.0425 
     39 H9        -22.4157   17.2603   42.4080 H         1 <1>         0.0529 
     40 H10       -24.1950   17.2921   42.2665 H         1 <1>         0.0529 
     41 H11       -21.8417   12.4046   42.8462 H         1 <1>         0.0550 
     42 H12       -22.4696   13.0192   41.3123 H         1 <1>         0.0550 
     43 H13       -24.8025   12.9856   42.3294 H         1 <1>         0.0284 
     44 H14       -24.0961   12.4713   43.8832 H         1 <1>         0.0284 
     45 H15       -23.9634   10.8727   41.2341 H         1 <1>         0.0230 
     46 H16       -25.0528   10.5204   42.6077 H         1 <1>         0.0230 
     47 H17       -23.2862   10.3333   42.8012 H         1 <1>         0.0230 
     48 H18       -18.7054   17.0485   41.3695 H         1 <1>         0.0380 
     49 H19       -20.0920   16.0221   41.8616 H         1 <1>         0.0380 
     50 H20       -18.5287   15.2717   41.4462 H         1 <1>         0.0380 
@<TRIPOS>BOND
     1    2    1 ar   
     2    2    3 ar   
     3    3    4 ar   
     4    4    5 ar   
     5    5    6 ar   
     6    1    6 ar   
     7    5    7 1    
     8    7    8 1    
     9    8    9 2    
    10    8   10 2    
    11    8   11 1    
    12   11   12 1    
    13   12   13 ar   
    14   13   14 ar   
    15   14   15 ar   
    16   15   16 ar   
    17   16   17 ar   
    18   12   17 ar   
    19   16   18 1    
    20   18   19 1    
    21   19   20 1    
    22   20   21 2    
    23   20   22 1    
    24   15   22 1    
    25   22   23 1    
    26   23   24 1    
    27   24   25 1    
    28    6   26 1    
    29    1   27 1    
    30    2   28 1    
    31    3   29 1    
    32    4   30 1    
    33    7   31 1    
    34    7   32 1    
    35   11   33 1    
    36   13   34 1    
    37   14   35 1    
    38   17   36 1    
    39   18   37 1    
    40   18   38 1    
    41   19   39 1    
    42   19   40 1    
    43   23   41 1    
    44   23   42 1    
    45   24   43 1    
    46   24   44 1    
    47   25   45 1    
    48   25   46 1    
    49   25   47 1    
    50   28   48 1    
    51   28   49 1    
    52   28   50 1    
@<TRIPOS>SUBSTRUCTURE
     1 ****        2 TEMP              0 ****  ****    0 ROOT 
@<TRIPOS>NORMAL
@<TRIPOS>FF_PBC
FORCE_FIELD_SETUP_FEATURE Force Field Setup information
v1.0  0 0.000000 0.000000 0.000000 0.000000 0.000000 0.000000 NONE 0 0 0 0 1 0 0 0 0 0 0 0 0
