#	Name:			PISM00983
#	Creating user name:	baoopengkun
#	Creation time:		Fri Jan 11 21:10:53 2019

#	Modifying user name:	baoopengkun
#	Modification time:	Fri Jan 11 21:13:40 2019

@<TRIPOS>MOLECULE
PISM00983
   51    53     1     1     0
SMALL
GAST_HUCK


@<TRIPOS>ATOM
      1 C1          2.5787    0.7583    3.6075 C.3       1 <1>        -0.0549 
      2 C2          2.3006    1.5012    2.2704 C.3       1 <1>        -0.0183 
      3 C3          3.5599    2.2794    1.8117 C.ar      1 <1>        -0.0415 
      4 C4          3.9782    3.4439    2.4835 C.ar      1 <1>        -0.0440 
      5 C5          3.1898    4.1588    3.6005 C.3       1 <1>        -0.0326 
      6 C6          1.7274    0.4929    1.2343 C.3       1 <1>        -0.0549 
      7 C7          4.3235    1.8388    0.7157 C.ar      1 <1>        -0.0569 
      8 C8          5.4970    2.4836    0.3086 C.ar      1 <1>         0.0208 
      9 C9          5.9854    3.5297    1.0969 C.ar      1 <1>         0.1302 
     10 C10         5.2045    4.0270    2.1417 C.ar      1 <1>        -0.0240 
     11 O11         7.2472    4.0838    0.8737 O.3       1 <1>        -0.2191 
     12 C12         7.9920    3.6378   -0.1366 C.2       1 <1>         0.2448 
     13 C13         7.4732    2.6471   -1.0920 C.2       1 <1>         0.0097 
     14 C14         6.2676    2.0868   -0.9379 C.2       1 <1>        -0.0144 
     15 O15         9.1236    4.0708   -0.2743 O.2       1 <1>        -0.3876 
     16 C16         5.6938    1.1055   -1.9462 C.3       1 <1>         0.0549 
     17 S17         6.5010    1.2112   -3.5836 S.3       1 <1>        -0.0328 
     18 C18         5.6603   -0.1371   -4.3897 C.2       1 <1>         0.1536 
     19 N19         4.6347   -0.7567   -3.9831 N.2       1 <1>        -0.3057 
     20 S20         6.2472   -0.7559   -5.9557 S.3       1 <1>        -0.0071 
     21 C21         4.8919   -1.9276   -5.9196 C.2       1 <1>        -0.0013 
     22 C22         4.1262   -1.8030   -4.8315 C.2       1 <1>         0.0067 
     23 C23         2.9009   -2.6217   -4.5337 C.3       1 <1>         0.0790 
     24 C24         1.9480   -2.4988   -5.7072 C.2       1 <1>         0.2430 
     25 O25         1.9871   -1.4989   -6.4052 O.2       1 <1>        -0.3680 
     26 O26         1.0270   -3.4294   -6.0221 O.3       1 <1>        -0.2759 
     27 C27         1.0220   -4.6519   -5.2639 C.3       1 <1>         0.0740 
     28 C28        -0.1421   -5.5228   -5.7951 C.3       1 <1>        -0.0371 
     29 H1          2.9395    1.4411    4.3892 H         1 <1>         0.0251 
     30 H2          3.3468   -0.0146    3.4549 H         1 <1>         0.0251 
     31 H3          1.6626    0.2722    3.9784 H         1 <1>         0.0251 
     32 H4          1.4900    2.2319    2.4085 H         1 <1>         0.0426 
     33 H5          2.9841    5.1874    3.2600 H         1 <1>         0.0389 
     34 H6          3.8143    4.2030    4.5087 H         1 <1>         0.0389 
     35 H7          2.2301    3.7088    3.8869 H         1 <1>         0.0389 
     36 H8          1.5754    0.9929    0.2649 H         1 <1>         0.0251 
     37 H9          0.7552    0.1047    1.5749 H         1 <1>         0.0251 
     38 H10         2.3927   -0.3734    1.1016 H         1 <1>         0.0251 
     39 H11         4.0207    0.9629    0.1642 H         1 <1>         0.0551 
     40 H12         5.5735    4.8859    2.6951 H         1 <1>         0.0492 
     41 H13         8.1476    2.4191   -1.9156 H         1 <1>         0.0428 
     42 H14         4.6317    1.3359   -2.1263 H         1 <1>         0.0616 
     43 H15         5.7860    0.0771   -1.5637 H         1 <1>         0.0616 
     44 H16         4.7066   -2.6603   -6.7046 H         1 <1>         0.0512 
     45 H17         2.4139   -2.2176   -3.6360 H         1 <1>         0.0647 
     46 H18         3.2527   -3.6381   -4.3206 H         1 <1>         0.0647 
     47 H19         0.8656   -4.4691   -4.1874 H         1 <1>         0.0610 
     48 H20         1.9546   -5.2175   -5.4228 H         1 <1>         0.0610 
     49 H21        -1.1047   -5.0116   -5.6345 H         1 <1>         0.0255 
     50 H22        -0.1619   -6.4910   -5.2704 H         1 <1>         0.0255 
     51 H23        -0.0190   -5.7073   -6.8747 H         1 <1>         0.0255 
@<TRIPOS>BOND
     1    2    1 1    
     2    2    3 1    
     3    3    4 ar   
     4    4    5 1    
     5    2    6 1    
     6    3    7 ar   
     7    7    8 ar   
     8    8    9 ar   
     9    9   10 ar   
    10    4   10 ar   
    11    9   11 1    
    12   11   12 1    
    13   12   13 1    
    14   13   14 2    
    15    8   14 1    
    16   12   15 2    
    17   14   16 1    
    18   16   17 1    
    19   17   18 1    
    20   18   19 2    
    21   18   20 1    
    22   20   21 1    
    23   21   22 2    
    24   19   22 1    
    25   22   23 1    
    26   23   24 1    
    27   24   25 2    
    28   24   26 1    
    29   26   27 1    
    30   27   28 1    
    31    1   29 1    
    32    1   30 1    
    33    1   31 1    
    34    2   32 1    
    35    5   33 1    
    36    5   34 1    
    37    5   35 1    
    38    6   36 1    
    39    6   37 1    
    40    6   38 1    
    41    7   39 1    
    42   10   40 1    
    43   13   41 1    
    44   16   42 1    
    45   16   43 1    
    46   21   44 1    
    47   23   45 1    
    48   23   46 1    
    49   27   47 1    
    50   27   48 1    
    51   28   49 1    
    52   28   50 1    
    53   28   51 1    
@<TRIPOS>SUBSTRUCTURE
     1 ****        2 TEMP              0 ****  ****    0 ROOT 
@<TRIPOS>NORMAL
@<TRIPOS>FF_PBC
FORCE_FIELD_SETUP_FEATURE Force Field Setup information
v1.0  0 0.000000 0.000000 0.000000 0.000000 0.000000 0.000000 NONE 0 0 0 0 1 0 0 0 0 0 0 0 0
