#	Name:			PISM00768.1
#	Creating user name:	baoopengkun
#	Creation time:		Fri Dec 14 22:58:53 2018

#	Modifying user name:	baoopengkun
#	Modification time:	Fri Dec 14 23:01:00 2018

@<TRIPOS>MOLECULE
PISM00768.1
   33    34     1     1     0
SMALL
GAST_HUCK


@<TRIPOS>ATOM
      1 C1         31.4794    6.0002  -15.3575 C.3       1 <1>        -0.0338 
      2 C2         30.3510    6.9368  -15.8049 C.ar      1 <1>        -0.0518 
      3 C3         30.5876    7.9906  -16.6945 C.ar      1 <1>        -0.0668 
      4 C4         29.5409    8.8285  -17.0906 C.ar      1 <1>        -0.0702 
      5 C5         28.2519    8.6474  -16.5760 C.ar      1 <1>        -0.0370 
      6 C6         28.0154    7.5879  -15.6938 C.ar      1 <1>        -0.0702 
      7 C7         29.0564    6.7351  -15.3157 C.ar      1 <1>        -0.0668 
      8 C8         27.1195    9.5780  -16.9623 C.2       1 <1>         0.0476 
      9 C9         25.8101    8.9976  -17.3326 C.2       1 <1>         0.1029 
     10 H10        24.9315    9.6198  -17.5008 H         1 <1>         0.1255 
     11 O11        25.6735    7.7930  -17.4684 O.2       1 <1>        -0.3838 
     12 C12        27.3115   10.9047  -16.9614 C.2       1 <1>         0.1012 
     13 O13        28.4986   11.4082  -16.5904 O.3       1 <1>        -0.2509 
     14 C14        28.5709   12.8413  -16.6594 C.3       1 <1>         0.2454 
     15 C15        29.8796   13.2631  -16.0386 C.2       1 <1>         0.0004 
     16 C16        29.6649   13.9922  -14.9454 C.2       1 <1>         0.0294 
     17 C17        28.2101   14.0588  -14.8603 C.2       1 <1>         0.2496 
     18 O18        27.5518   13.4316  -15.8270 O.3       1 <1>        -0.2293 
     19 C19        30.6828   14.6050  -14.0227 C.3       1 <1>        -0.0323 
     20 O20        27.6292   14.6536  -13.9692 O.2       1 <1>        -0.3691 
     21 H1         31.5725    6.0432  -14.2619 H         1 <1>         0.0381 
     22 H2         32.4465    6.2763  -15.8038 H         1 <1>         0.0381 
     23 H3         31.2341    4.9703  -15.6574 H         1 <1>         0.0381 
     24 H4         31.5848    8.1639  -17.0857 H         1 <1>         0.0542 
     25 H5         29.7374    9.6173  -17.8092 H         1 <1>         0.0542 
     26 H6         27.0204    7.4249  -15.2923 H         1 <1>         0.0542 
     27 H7         28.8565    5.9125  -14.6363 H         1 <1>         0.0542 
     28 H8         26.4800   11.5491  -17.2575 H         1 <1>         0.1313 
     29 H9         28.4949   13.2136  -17.6952 H         1 <1>         0.1226 
     30 H11        30.8613   12.9986  -16.4299 H         1 <1>         0.0707 
     31 H12        31.2450   13.8086  -13.5129 H         1 <1>         0.0347 
     32 H13        30.1860   15.2316  -13.2668 H         1 <1>         0.0347 
     33 H14        31.3821   15.2288  -14.5991 H         1 <1>         0.0347 
@<TRIPOS>BOND
     1    2    1 1    
     2    2    3 ar   
     3    3    4 ar   
     4    4    5 ar   
     5    5    6 ar   
     6    6    7 ar   
     7    2    7 ar   
     8    5    8 1    
     9    8    9 1    
    10    9   10 1    
    11    9   11 2    
    12    8   12 2    
    13   12   13 1    
    14   13   14 1    
    15   14   15 1    
    16   15   16 2    
    17   16   17 1    
    18   17   18 1    
    19   14   18 1    
    20   16   19 1    
    21   17   20 2    
    22    1   21 1    
    23    1   22 1    
    24    1   23 1    
    25    3   24 1    
    26    4   25 1    
    27    6   26 1    
    28    7   27 1    
    29   12   28 1    
    30   14   29 1    
    31   15   30 1    
    32   19   31 1    
    33   19   32 1    
    34   19   33 1    
@<TRIPOS>SUBSTRUCTURE
     1 ****        2 TEMP              0 ****  ****    0 ROOT 
@<TRIPOS>NORMAL
@<TRIPOS>FF_PBC
FORCE_FIELD_SETUP_FEATURE Force Field Setup information
v1.0  0 0.000000 0.000000 0.000000 0.000000 0.000000 0.000000 NONE 0 0 0 0 1 0 0 0 0 0 0 0 0
