#	Name:			PISM00651
#	Creating user name:	baoopengkun
#	Creation time:		Sat Jan 12 19:35:16 2019

#	Modifying user name:	baoopengkun
#	Modification time:	Sat Jan 12 19:36:36 2019

@<TRIPOS>MOLECULE
PISM00651
   28    29     1     1     0
SMALL
GAST_HUCK


@<TRIPOS>ATOM
      1 Cl1       -10.6353   -0.4013   -3.3449 Cl        1 <1>        -0.0722 
      2 C2         -9.0279   -0.2570   -2.6613 C.ar      1 <1>         0.0548 
      3 C3         -8.5996   -1.1385   -1.6660 C.ar      1 <1>         0.0116 
      4 N4         -7.3568   -1.0328   -1.1505 N.ar      1 <1>        -0.2803 
      5 C5         -6.4732   -0.1183   -1.6026 C.ar      1 <1>         0.1346 
      6 C6         -6.8782    0.8343   -2.5472 C.ar      1 <1>        -0.0111 
      7 C7         -8.1577    0.7422   -3.1021 C.ar      1 <1>        -0.0388 
      8 N8         -5.2243   -0.1786   -1.0808 N.pl3     1 <1>        -0.2226 
      9 C9         -4.1439    0.1358   -1.7466 C.2       1 <1>         0.2371 
     10 O10        -4.1577    0.5190   -2.9045 O.2       1 <1>        -0.3632 
     11 C11        -2.6012    0.6086    0.1796 C.ar      1 <1>        -0.0357 
     12 C12        -1.7064   -0.5930   -1.7216 C.ar      1 <1>         0.0817 
     13 C13        -0.4253   -0.4953   -1.1656 C.ar      1 <1>        -0.0352 
     14 C14        -0.2383    0.1075    0.0807 C.ar      1 <1>        -0.0517 
     15 C15        -2.7842    0.0380   -1.0861 C.ar      1 <1>         0.0767 
     16 C16        -1.3344    0.6309    0.7698 C.ar      1 <1>        -0.0517 
     17 C17        -1.8808   -1.4023   -2.9897 C.2       1 <1>         0.2648 
     18 O18        -2.9772   -1.8311   -3.3123 O.2       1 <1>        -0.3550 
     19 O19        -0.8147   -1.6738   -3.7456 O.3       1 <1>        -0.2929 
     20 H1         -9.2639   -1.9139   -1.3024 H         1 <1>         0.0792 
     21 H2         -6.2292    1.6484   -2.8494 H         1 <1>         0.0624 
     22 H3         -8.4779    1.4415   -3.8678 H         1 <1>         0.0708 
     23 H4         -5.1326   -0.5490   -0.1260 H         1 <1>         0.2145 
     24 H5         -3.4400    1.0507    0.7076 H         1 <1>         0.0683 
     25 H6          0.4337   -0.8975   -1.6952 H         1 <1>         0.0684 
     26 H7          0.7554    0.1651    0.5135 H         1 <1>         0.0665 
     27 H8         -1.2018    1.0579    1.7598 H         1 <1>         0.0665 
     28 H9         -1.0421   -2.2063   -4.4998 H         1 <1>         0.2524 
@<TRIPOS>BOND
     1    2    1 1    
     2    3    2 ar   
     3    4    3 ar   
     4    5    4 ar   
     5    5    6 ar   
     6    6    7 ar   
     7    7    2 ar   
     8    8    5 1    
     9    9    8 1    
    10    9   10 2    
    11   15   11 ar   
    12   15   12 ar   
    13   12   13 ar   
    14   13   14 ar   
    15   15    9 1    
    16   14   16 ar   
    17   11   16 ar   
    18   12   17 1    
    19   17   18 2    
    20   17   19 1    
    21    3   20 1    
    22    6   21 1    
    23    7   22 1    
    24    8   23 1    
    25   11   24 1    
    26   13   25 1    
    27   14   26 1    
    28   16   27 1    
    29   19   28 1    
@<TRIPOS>SUBSTRUCTURE
     1 ****       15 TEMP              0 ****  ****    0 ROOT 
@<TRIPOS>NORMAL
@<TRIPOS>FF_PBC
FORCE_FIELD_SETUP_FEATURE Force Field Setup information
v1.0  0 0.000000 0.000000 0.000000 0.000000 0.000000 0.000000 NONE 0 0 0 0 1 0 0 0 0 0 0 0 0
