#	Name:			PISM00466
#	Creating user name:	Administrator
#	Creation time:		Sat Feb 23 00:08:02 2019

#	Modifying user name:	Administrator
#	Modification time:	Sat Feb 23 00:25:50 2019

@<TRIPOS>MOLECULE
PISM00466
   42    43     1     2     0
SMALL
GAST_HUCK


@<TRIPOS>ATOM
      1 C1          6.1628    0.5829    3.5764 C.2       1 PHENYL     -0.0038 
      2 N2          5.3847    0.0576    2.7266 N.2       1 PHENYL     -0.2468 
      3 N3          4.4487    0.9483    2.3383 N.pl3     1 PHENYL     -0.2257 
      4 C4          4.6395    2.0851    2.9540 C.2       1 PHENYL      0.0587 
      5 C5          5.7063    1.9668    3.7568 C.2       1 PHENYL     -0.0133 
      6 C6          6.3463    2.9835    4.6672 C.3       1 PHENYL      0.0433 
      7 N7          5.9851    2.6942    6.0487 N.am      1 PHENYL     -0.2366 
      8 S8          7.2591    2.9896    7.3932 S.o2      1 PHENYL      0.0518 
      9 O9          8.5512    2.5313    6.9242 O.2       1 PHENYL     -0.1531 
     10 O10         6.7393    2.5029    8.6550 O.2       1 PHENYL     -0.1531 
     11 C11         7.2712    4.7879    7.4394 C.3       1 PHENYL      0.1183 
     12 C           8.2072    5.2715    8.5562 C.ar      1 PHENYL     -0.0196 
     13 C           9.5928    5.2586    8.3584 C.ar      1 PHENYL     -0.0580 
     14 C          10.4531    5.7381    9.3508 C.ar      1 PHENYL     -0.0541 
     15 C           9.9354    6.2217   10.5552 C.ar      1 PHENYL      0.0469 
     16 C           8.5538    6.2107   10.7704 C.ar      1 PHENYL      0.0478 
     17 C           7.6957    5.7309    9.7758 C.ar      1 PHENYL     -0.0443 
     18 C18         7.3078   -0.1277    4.2414 C.3       1 PHENYL     -0.0319 
     19 C19         3.7561    3.2896    2.7422 C.3       1 PHENYL     -0.0085 
     20 C20         3.4008    0.6512    1.3737 C.3       1 PHENYL      0.0529 
     21 C21         4.6739    2.1741    6.4165 C.3       1 PHENYL      0.0190 
     22 Cl22       11.0211    6.8368   11.7851 Cl        1 PHENYL     -0.0764 
     23 H1          6.0608    4.0135    4.4167 H         1 PHENYL      0.0535 
     24 H2          7.4360    2.9126    4.5438 H         1 PHENYL      0.0535 
     25 H3          6.2400    5.1339    7.5993 H         1 PHENYL      0.0683 
     26 H4          7.6203    5.1639    6.4661 H         1 PHENYL      0.0683 
     27 H27        10.0068    4.8741    7.4312 H         1 PHENYL      0.0559 
     28 H28        11.5266    5.7364    9.1880 H         1 PHENYL      0.0606 
     29 Cl29        7.8894    6.7973   12.2819 Cl        1 PHENYL     -0.0718 
     30 H30         6.6272    5.7185    9.9626 H         1 PHENYL      0.0563 
     31 H9          7.7651    0.4933    5.0248 H         1 PHENYL      0.0367 
     32 H10         8.0675   -0.3766    3.4865 H         1 PHENYL      0.0367 
     33 H11         6.9355   -1.0561    4.6987 H         1 PHENYL      0.0367 
     34 H12         3.9531    4.0959    3.4605 H         1 PHENYL      0.0412 
     35 H13         2.7032    2.9936    2.8551 H         1 PHENYL      0.0412 
     36 H14         3.9135    3.6784    1.7266 H         1 PHENYL      0.0412 
     37 H15         2.4190    0.6564    1.8700 H         1 PHENYL      0.0585 
     38 H16         3.5747   -0.3486    0.9494 H         1 PHENYL      0.0585 
     39 H17         3.4069    1.3867    0.5558 H         1 PHENYL      0.0585 
     40 H18         4.6752    1.0775    6.3174 H         1 PHENYL      0.0443 
     41 H19         3.8872    2.5886    5.7673 H         1 PHENYL      0.0443 
     42 H20         4.4335    2.4354    7.4580 H         1 PHENYL      0.0443 
@<TRIPOS>BOND
     1    1    2 2    
     2    2    3 1    
     3    4    3 1    
     4    5    4 2    
     5    5    1 1    
     6    6    5 1    
     7    7    6 1    
     8    8    7 1    
     9    8    9 2    
    10    8   10 2    
    11   11    8 1    
    12   12   13 ar   
    13   12   17 ar   
    14   17   16 ar   
    15   16   15 ar   
    16   14   15 ar   
    17   13   14 ar   
    18   12   11 1    
    19    1   18 1    
    20    4   19 1    
    21    3   20 1    
    22    7   21 1    
    23   15   22 1    
    24    6   23 1    
    25    6   24 1    
    26   11   25 1    
    27   11   26 1    
    28   13   27 1    
    29   14   28 1    
    30   16   29 1    
    31   17   30 1    
    32   18   31 1    
    33   18   32 1    
    34   18   33 1    
    35   19   34 1    
    36   19   35 1    
    37   19   36 1    
    38   20   37 1    
    39   20   38 1    
    40   20   39 1    
    41   21   40 1    
    42   21   41 1    
    43   21   42 1    
@<TRIPOS>SUBSTRUCTURE
     1 PHENYL     12 PERM              0 ****  ****    0 ROOT 
@<TRIPOS>NORMAL
@<TRIPOS>FF_PBC
FORCE_FIELD_SETUP_FEATURE Force Field Setup information
v1.0  0 0.000000 0.000000 0.000000 0.000000 0.000000 0.000000 NONE 0 0 0 0 1 0 0 0 0 0 0 0 0
@<TRIPOS>RENDERING_ATTRS
ANTIALIASED_LINES 
*
