#	Name:			PISM01123
#	Creating user name:	14062
#	Creation time:		Sat Apr 06 23:06:14 2019

#	Modifying user name:	14062
#	Modification time:	Sat Apr 06 23:08:00 2019

@<TRIPOS>MOLECULE
PISM01123
   21    22     2     2     0
SMALL
GAST_HUCK


@<TRIPOS>ATOM
      1 C1        -11.3654    6.9410    1.4280 C.2       1 BENZYL      0.0232 
      2 C1        -10.4625    6.0899    0.9380 C.2       1 BENZYL     -0.0005 
      3 C2        -10.1261    5.8574   -0.5183 C.ar      1 BENZYL     -0.0200 
      4 C3        -11.1659    5.7032   -1.4414 C.ar      1 BENZYL     -0.0603 
      5 C4        -10.8831    5.4261   -2.7818 C.ar      1 BENZYL     -0.0651 
      6 C5         -9.5565    5.2983   -3.2013 C.ar      1 BENZYL     -0.0514 
      7 C6         -8.5145    5.4821   -2.2885 C.ar      1 BENZYL      0.0504 
      8 C7         -8.7976    5.7969   -0.9554 C.ar      1 BENZYL      0.0550 
      9 C9         -9.8919    5.4341    2.1080 C.2       1 BENZYL      0.0891 
     10 C10       -10.5122    5.9860    3.1510 C.2       1 BENZYL      0.0503 
     11 N11       -11.4026    6.9065    2.7646 N.3       1 BENZYL     -0.2163 
     12 C          -8.8926    4.3983    2.1503 C.1       2 CN          0.0666 
     13 N          -8.0909    3.5643    2.1883 N.1       2 CN         -0.3560 
     14 Cl14       -7.4808    6.1357    0.1512 Cl        1 BENZYL     -0.0730 
     15 Cl15       -6.8548    5.3211   -2.8280 Cl        1 BENZYL     -0.0711 
     16 H1        -11.9907    7.5868    0.8094 H         1 BENZYL      0.0869 
     17 H2        -12.1987    5.7905   -1.1191 H         1 BENZYL      0.0586 
     18 H3        -11.6929    5.3072   -3.4957 H         1 BENZYL      0.0608 
     19 H4         -9.3332    5.0581   -4.2359 H         1 BENZYL      0.0590 
     20 H5        -10.3137    5.7038    4.1863 H         1 BENZYL      0.1047 
     21 H6        -11.1302    7.8756    3.1660 H         1 BENZYL      0.2092 
@<TRIPOS>BOND
     1    2    3 1    
     2    3    4 ar   
     3    3    8 ar   
     4    8    7 ar   
     5    7    6 ar   
     6    6    5 ar   
     7    5    4 ar   
     8    2    1 2    
     9    2    9 1    
    10    9   10 2    
    11   10   11 1    
    12    1   11 1    
    13   12   13 3    
    14    9   12 1    
    15    8   14 1    
    16    7   15 1    
    17    1   16 1    
    18    4   17 1    
    19    5   18 1    
    20    6   19 1    
    21   10   20 1    
    22   11   21 1    
@<TRIPOS>SUBSTRUCTURE
     1 BENZYL      2 PERM              0 ****  ****    1 ROOT 
     2 CN         12 PERM              0 ****  ****    1  
@<TRIPOS>NORMAL
@<TRIPOS>FF_PBC
FORCE_FIELD_SETUP_FEATURE Force Field Setup information
v1.0  0 0.000000 0.000000 0.000000 0.000000 0.000000 0.000000 NONE 0 0 0 0 1 0 0 0 0 0 0 0 0
@<TRIPOS>RENDERING_ATTRS
ANTIALIASED_LINES 
*
