#	Name:			PISM00251
#	Creating user name:	14062
#	Creation time:		Mon Apr 01 21:02:29 2019

#	Modifying user name:	14062
#	Modification time:	Mon Apr 01 21:02:49 2019

@<TRIPOS>MOLECULE
PISM00251
   56    58     1     2     0
SMALL
GAST_HUCK


@<TRIPOS>ATOM
      1 N1          4.7890    6.6931    7.0099 N.pl3     1 <1>        -0.2884 
      2 C2          5.8810    7.4825    7.0060 C.ar      1 <1>         0.0606 
      3 C3          5.5092    8.7855    6.7394 C.ar      1 <1>        -0.0191 
      4 C4          6.4372    9.8222    6.6548 C.ar      1 <1>        -0.0746 
      5 C5          7.7781    9.4870    6.8794 C.ar      1 <1>        -0.0792 
      6 C6          8.1590    8.1665    7.1693 C.ar      1 <1>        -0.0767 
      7 C7          4.0110    8.6720    6.6106 C.2       1 <1>        -0.0230 
      8 C8          3.6966    7.3774    6.7829 C.2       1 <1>         0.0195 
      9 C9          7.2130    7.1341    7.2308 C.ar      1 <1>        -0.0442 
     10 C10         3.0674    9.8171    6.3572 C.3       1 <1>         0.0783 
     11 C11         3.4428   10.9553    7.2714 C.2       1 <1>         0.2396 
     12 O12         3.7194   12.0680    6.8536 O.2       1 <1>        -0.3687 
     13 O13         3.4464   10.6683    8.5724 O.3       1 <1>        -0.2917 
     14 C14         3.0692   10.2481    4.8660 C.3       1 <1>        -0.0042 
     15 O15         2.2014    9.7407    2.6881 O.3       1 <1>        -0.3775 
     16 C16         1.7671    8.8228    1.6664 C.3       1 <1>         0.0678 
     17 C17         1.1373    9.6762    0.5379 C.3       1 <1>         0.0543 
     18 N18         0.6907    8.8583   -0.5916 N.am      1 <1>        -0.2828 
     19 C19        -0.5417    9.0118   -1.1312 C.2       1 <1>         0.2019 
     20 C20        -0.9377    8.1999   -2.3541 C.3       1 <1>         0.1335 
     21 O21        -1.3514    9.7900   -0.6535 O.2       1 <1>        -0.3945 
     22 C22         2.6203    9.1094    3.9120 C.3       1 <1>         0.0512 
     23 H1          4.8122    5.6762    7.1803 H         1 <1>         0.2219 
     24 H2          6.1332   10.8379    6.4268 H         1 <1>         0.0540 
     25 H3          8.5353   10.2630    6.8287 H         1 <1>         0.0510 
     26 H4          9.2051    7.9401    7.3501 H         1 <1>         0.0530 
     27 H5          2.6865    6.9684    6.7441 H         1 <1>         0.0804 
     28 H6          7.4984    6.1099    7.4453 H         1 <1>         0.0541 
     29 H7          2.0457    9.5138    6.6377 H         1 <1>         0.0635 
     30 H8          3.6897   11.4297    9.0872 H         1 <1>         0.2540 
     31 H9          4.0674   10.6063    4.5655 H         1 <1>         0.0329 
     32 H10         2.3597   11.0851    4.7599 H         1 <1>         0.0329 
     33 H11         2.6280    8.2469    1.2910 H         1 <1>         0.0580 
     34 H12         1.0000    8.1241    2.0383 H         1 <1>         0.0580 
     35 H13         1.8841   10.4029    0.1805 H         1 <1>         0.0543 
     36 H14         0.3152   10.2526    0.9931 H         1 <1>         0.0543 
     37 H15         1.3476    8.2254   -1.0156 H         1 <1>         0.1852 
     38 H16        -0.7850    7.1273   -2.1509 H         1 <1>         0.0802 
     39 C39        -2.4036    8.4550   -2.8011 C.3       1 <1>        -0.0104 
     40 N40        -0.2440    8.5490   -3.5947 N.am      1 <1>        -0.2520 
     41 H17         3.4471    8.3976    3.7470 H         1 <1>         0.0562 
     42 C42        -1.0567    8.8799   -4.7600 C.3       1 <1>         0.0369 
     43 C43        -2.3763    8.1994   -4.3250 C.3       1 <1>        -0.0281 
     44 C44         1.1094    8.4943   -3.6516 C.2       1 <1>         0.1776 
     45 C45         1.8694    8.9329   -4.8761 C.3       1 <1>         0.0260 
     46 O46         1.7575    8.0729   -2.7077 O.2       1 <1>        -0.3970 
     47 H18         1.7643    8.5682    4.3479 H         1 <1>         0.0562 
     48 H19        -2.6793    9.5125   -2.6574 H         1 <1>         0.0313 
     49 H20        -3.1305    7.8262   -2.2630 H         1 <1>         0.0313 
     50 H21        -0.6932    8.4618   -5.7123 H         1 <1>         0.0524 
     51 H22        -1.1777    9.9719   -4.8478 H         1 <1>         0.0524 
     52 H23        -2.3055    7.1129   -4.5024 H         1 <1>         0.0287 
     53 H24        -3.2642    8.5876   -4.8506 H         1 <1>         0.0287 
     54 H25         1.7904    8.1757   -5.6699 H         1 <1>         0.0467 
     55 H26         2.9336    9.0629   -4.6246 H         1 <1>         0.0467 
     56 H27         1.4840    9.8963   -5.2414 H         1 <1>         0.0467 
@<TRIPOS>BOND
     1    8    1 1    
     2    1    2 1    
     3    3    2 ar   
     4    7    3 1    
     5    3    4 ar   
     6    4    5 ar   
     7    5    6 ar   
     8    7    8 2    
     9    9    6 ar   
    10    2    9 ar   
    11   10    7 1    
    12   10   11 1    
    13   11   12 2    
    14   11   13 1    
    15   14   10 1    
    16   15   16 1    
    17   22   15 1    
    18   16   17 1    
    19   17   18 1    
    20   18   19 am   
    21   19   20 1    
    22   19   21 2    
    23   14   22 1    
    24    1   23 1    
    25    4   24 1    
    26    5   25 1    
    27    6   26 1    
    28    8   27 1    
    29    9   28 1    
    30   10   29 1    
    31   13   30 1    
    32   14   31 1    
    33   14   32 1    
    34   16   33 1    
    35   16   34 1    
    36   17   35 1    
    37   17   36 1    
    38   18   37 1    
    39   20   38 1    
    40   20   39 1    
    41   20   40 1    
    42   22   41 1    
    43   40   42 1    
    44   42   43 1    
    45   39   43 1    
    46   40   44 am   
    47   44   45 1    
    48   44   46 2    
    49   22   47 1    
    50   39   48 1    
    51   39   49 1    
    52   42   50 1    
    53   42   51 1    
    54   43   52 1    
    55   43   53 1    
    56   45   54 1    
    57   45   55 1    
    58   45   56 1    
@<TRIPOS>SUBSTRUCTURE
     1 ****        7 TEMP              0 ****  ****    0 ROOT 
@<TRIPOS>NORMAL
@<TRIPOS>FF_PBC
FORCE_FIELD_SETUP_FEATURE Force Field Setup information
v1.0  0 0.000000 0.000000 0.000000 0.000000 0.000000 0.000000 NONE 0 0 0 0 1 0 0 0 0 0 0 0 0
@<TRIPOS>RENDERING_ATTRS
ANTIALIASED_LINES 
1,2,3,4,5,6,7,8,9,10,11,12,13,15,16,17,18,19,20,21
