#	Name:			PISM00226
#	Creating user name:	14062
#	Creation time:		Fri Apr 05 23:42:06 2019

#	Modifying user name:	14062
#	Modification time:	Fri Apr 05 23:47:04 2019

@<TRIPOS>MOLECULE
PISM00226
   23    22     1     2     0
SMALL
GAST_HUCK


@<TRIPOS>ATOM
      1 O1         -7.4647    0.6434   -2.1662 O.3       1 <1>        -0.3353 
      2 C2         -8.6670   -0.1487   -2.0702 C.3       1 <1>         0.0793 
      3 C3         -9.6191    0.3188   -3.1944 C.3       1 <1>         0.0209 
      4 N4        -10.0140    1.7234   -2.9540 N.3       1 <1>        -0.3276 
      5 H1         -9.1705    0.0005   -1.1003 H         1 <1>         0.0625 
      6 H2         -8.4381   -1.2191   -2.2021 H         1 <1>         0.0625 
      7 H3        -10.5205   -0.3176   -3.2033 H         1 <1>         0.0448 
      8 H4         -9.1059    0.2148   -4.1658 H         1 <1>         0.0448 
      9 C9         -6.5534    0.3721   -1.2189 C.2       1 <1>         0.0395 
     10 C10        -5.3840    1.0195   -1.2354 C.2       1 <1>        -0.0425 
     11 C11        -4.2828    0.7922   -0.2244 C.3       1 <1>         0.1188 
     12 C12        -3.5546    2.0899    0.0870 C.2       1 <1>         0.2538 
     13 O13        -2.3090    2.0532    0.5716 O.3       1 <1>        -0.2906 
     14 O14        -4.0878    3.1732   -0.0849 O.2       1 <1>        -0.3670 
     15 N15        -4.8262    0.1822    1.0124 N.3       1 <1>        -0.3044 
     16 H5        -10.6761    2.0763   -3.7330 H         1 <1>         0.1183 
     17 H6         -9.1335    2.3548   -2.9133 H         1 <1>         0.1183 
     18 H7         -6.7360   -0.3713   -0.4388 H         1 <1>         0.0863 
     19 H8         -5.2187    1.7405   -2.0383 H         1 <1>         0.0371 
     20 H9         -3.5855    0.0933   -0.7129 H         1 <1>         0.0804 
     21 H10        -1.9553    1.1813    0.6982 H         1 <1>         0.2540 
     22 H11        -5.4943    0.8784    1.5056 H         1 <1>         0.1231 
     23 H12        -4.0343   -0.0968    1.6960 H         1 <1>         0.1231 
@<TRIPOS>BOND
     1    9    1 1    
     2    1    2 1    
     3    2    3 1    
     4    3    4 1    
     5    2    5 1    
     6    2    6 1    
     7    3    7 1    
     8    3    8 1    
     9    4   16 1    
    10    4   17 1    
    11    9   10 2    
    12   10   11 1    
    13   11   12 1    
    14   12   13 1    
    15   12   14 2    
    16   11   15 1    
    17    9   18 1    
    18   10   19 1    
    19   11   20 1    
    20   13   21 1    
    21   15   22 1    
    22   15   23 1    
@<TRIPOS>SUBSTRUCTURE
     1 ****        9 TEMP              0 ****  ****    0 ROOT 
@<TRIPOS>NORMAL
@<TRIPOS>FF_PBC
FORCE_FIELD_SETUP_FEATURE Force Field Setup information
v1.0  0 0.000000 0.000000 0.000000 0.000000 0.000000 0.000000 NONE 0 0 0 0 1 0 0 0 0 0 0 0 0
@<TRIPOS>RENDERING_ATTRS
ANTIALIASED_LINES 
1,2,3,4,9,10,11,12,13,14,15
