#	Name:			PISM00914.1
#	Creating user name:	baoopengkun
#	Creation time:		Fri Dec 14 10:31:16 2018

#	Modifying user name:	baoopengkun
#	Modification time:	Fri Dec 14 10:47:43 2018

@<TRIPOS>MOLECULE
PISM00914.1
   40    42     1     1     0
SMALL
GAST_HUCK


@<TRIPOS>ATOM
      1 C1         25.7500   16.1348  -15.2835 C.ar      1 <1>         0.0873 
      2 C2         26.9868   16.7903  -15.2313 C.ar      1 <1>        -0.0294 
      3 C3         27.8042   16.7073  -14.0933 C.ar      1 <1>        -0.0620 
      4 C4         27.4111   15.9615  -12.9743 C.ar      1 <1>        -0.0488 
      5 C5         26.1851   15.3009  -13.0442 C.ar      1 <1>         0.0636 
      6 C6         25.3798   15.3791  -14.1711 C.ar      1 <1>         0.0945 
      7 C7         24.1732   14.5270  -13.8679 C.2       1 <1>         0.2371 
      8 N8         24.2849   14.0076  -12.6302 N.am      1 <1>        -0.1423 
      9 C9         25.4399   14.4184  -12.0737 C.2       1 <1>         0.2414 
     10 O10        23.2502   14.3534  -14.6444 O.2       1 <1>        -0.3740 
     11 O11        25.8406   14.1323  -10.9590 O.2       1 <1>        -0.3670 
     12 C12        23.2841   13.1858  -11.9734 C.3       1 <1>         0.2213 
     13 O13        22.1908   14.0438  -11.5913 O.3       1 <1>        -0.2348 
     14 C14        21.1549   13.6306  -12.3112 C.2       1 <1>         0.2491 
     15 C15        21.4087   12.4821  -13.1743 C.2       1 <1>         0.0288 
     16 C16        22.6918   12.2020  -12.9542 C.2       1 <1>        -0.0059 
     17 C17        20.4465   11.7745  -14.0879 C.3       1 <1>        -0.0323 
     18 O18        20.0659   14.1740  -12.2411 O.2       1 <1>        -0.3691 
     19 N19        24.9560   16.2321  -16.3742 N.pl3     1 <1>        -0.2340 
     20 C20        23.8523   16.9292  -16.3802 C.2       1 <1>         0.2025 
     21 C21        23.3873   17.6842  -15.1537 C.3       1 <1>         0.0428 
     22 O22        23.1795   16.9889  -17.3960 O.2       1 <1>        -0.3787 
     23 C23        22.1782   18.6144  -15.4460 C.3       1 <1>        -0.0382 
     24 C24        21.7349   19.3833  -14.1739 C.3       1 <1>        -0.0631 
     25 H1         27.3135   17.3736  -16.0864 H         1 <1>         0.0578 
     26 H2         28.7565   17.2292  -14.0782 H         1 <1>         0.0632 
     27 H3         28.0302   15.8945  -12.0856 H         1 <1>         0.0584 
     28 H4         23.6860   12.6670  -11.0871 H         1 <1>         0.1152 
     29 H5         23.2430   11.3883  -13.4235 H         1 <1>         0.0702 
     30 H6         20.6689   12.0476  -15.1302 H         1 <1>         0.0347 
     31 H7         19.4124   12.0686  -13.8535 H         1 <1>         0.0347 
     32 H8         20.5435   10.6848  -13.9705 H         1 <1>         0.0347 
     33 H9         25.2407   15.7534  -17.2418 H         1 <1>         0.2134 
     34 H10        24.2221   18.2923  -14.7721 H         1 <1>         0.0511 
     35 H11        23.0888   16.9652  -14.3776 H         1 <1>         0.0511 
     36 H12        21.3316   18.0115  -15.8162 H         1 <1>         0.0288 
     37 H13        22.4557   19.3384  -16.2307 H         1 <1>         0.0288 
     38 H14        20.8769   20.0342  -14.4050 H         1 <1>         0.0231 
     39 H15        22.5577   20.0102  -13.7961 H         1 <1>         0.0231 
     40 H16        21.4355   18.6778  -13.3830 H         1 <1>         0.0231 
@<TRIPOS>BOND
     1    2    1 ar   
     2    2    3 ar   
     3    3    4 ar   
     4    4    5 ar   
     5    6    5 ar   
     6    1    6 ar   
     7    6    7 1    
     8    7    8 am   
     9    9    8 am   
    10    5    9 1    
    11    7   10 2    
    12    9   11 2    
    13    8   12 1    
    14   12   13 1    
    15   13   14 1    
    16   15   14 1    
    17   16   15 2    
    18   12   16 1    
    19   15   17 1    
    20   14   18 2    
    21    1   19 1    
    22   19   20 1    
    23   20   21 1    
    24   20   22 2    
    25   21   23 1    
    26   23   24 1    
    27    2   25 1    
    28    3   26 1    
    29    4   27 1    
    30   12   28 1    
    31   16   29 1    
    32   17   30 1    
    33   17   31 1    
    34   17   32 1    
    35   19   33 1    
    36   21   34 1    
    37   21   35 1    
    38   23   36 1    
    39   23   37 1    
    40   24   38 1    
    41   24   39 1    
    42   24   40 1    
@<TRIPOS>SUBSTRUCTURE
     1 ****        2 TEMP              0 ****  ****    0 ROOT 
@<TRIPOS>NORMAL
@<TRIPOS>FF_PBC
FORCE_FIELD_SETUP_FEATURE Force Field Setup information
v1.0  0 0.000000 0.000000 0.000000 0.000000 0.000000 0.000000 NONE 0 0 0 0 1 0 0 0 0 0 0 0 0
