#	Name:			PISM00019
#	Creating user name:	baoopengkun
#	Creation time:		Sat Nov 17 16:33:05 2018

#	Modifying user name:	baoopengkun
#	Modification time:	Sat Nov 17 16:35:57 2018

@<TRIPOS>MOLECULE
PISM00019
   32    34     1     2     0
SMALL
GAST_HUCK


@<TRIPOS>ATOM
      1 C1          1.6493   -1.0992    5.7248 C.3       1 <1>        -0.0599 
      2 C2          0.6279   -0.3373    4.8344 C.3       1 <1>        -0.0141 
      3 C3          0.7857    1.1974    5.0180 C.3       1 <1>        -0.0599 
      4 C4         -0.8382   -0.8159    5.0571 C.3       1 <1>         0.1070 
      5 C5         -1.4350   -0.4963    6.4507 C.3       1 <1>         0.0999 
      6 O6         -2.7267   -1.1197    6.5378 O.3       1 <1>        -0.3154 
      7 C7         -3.5693   -0.8663    5.4506 C.ar      1 <1>         0.1222 
      8 C8         -3.0505   -0.4063    4.2324 C.ar      1 <1>         0.1176 
      9 O9         -1.6785   -0.1877    4.0732 O.3       1 <1>        -0.3195 
     10 C10        -3.9129   -0.1554    3.1624 C.ar      1 <1>        -0.0327 
     11 C11        -5.2876   -0.3702    3.3007 C.ar      1 <1>         0.0065 
     12 C12        -5.8076   -0.8368    4.5127 C.ar      1 <1>         0.1249 
     13 C13        -4.9432   -1.0822    5.5824 C.ar      1 <1>         0.0030 
     14 C14        -6.2358   -0.1062    2.1556 C.2       1 <1>        -0.0490 
     15 C15        -7.5354   -0.3357    2.3576 C.2       1 <1>         0.0143 
     16 C16        -8.0192   -0.8301    3.6588 C.2       1 <1>         0.2561 
     17 O17        -7.1785   -1.0624    4.6741 O.3       1 <1>        -0.2185 
     18 O18        -9.2111   -1.0332    3.8178 O.2       1 <1>        -0.3790 
     19 H1          2.6766   -0.8301    5.4328 H         1 <1>         0.0233 
     20 H2          1.5320   -2.1874    5.6045 H         1 <1>         0.0233 
     21 H3          1.5227   -0.8465    6.7874 H         1 <1>         0.0233 
     22 H4          0.8683   -0.5716    3.7816 H         1 <1>         0.0325 
     23 H5          0.0501    1.7387    4.4030 H         1 <1>         0.0233 
     24 H6          1.7939    1.5133    4.7070 H         1 <1>         0.0233 
     25 H7          0.6484    1.4868    6.0702 H         1 <1>         0.0233 
     26 H8         -0.8856   -1.9081    4.9057 H         1 <1>         0.0672 
     27 H9         -1.5535    0.5906    6.5798 H         1 <1>         0.0643 
     28 H10        -0.8200   -0.8914    7.2714 H         1 <1>         0.0643 
     29 H11        -3.5049    0.2068    2.2249 H         1 <1>         0.0512 
     30 H12        -5.3417   -1.4434    6.5239 H         1 <1>         0.0468 
     31 H13        -5.8705    0.2599    1.1954 H         1 <1>         0.0725 
     32 H14        -8.2609   -0.1611    1.5629 H         1 <1>         0.0576 
@<TRIPOS>BOND
     1    2    1 1    
     2    2    3 1    
     3    2    4 1    
     4    4    5 1    
     5    5    6 1    
     6    6    7 1    
     7    7    8 ar   
     8    8    9 1    
     9    4    9 1    
    10    8   10 ar   
    11   10   11 ar   
    12   11   12 ar   
    13   12   13 ar   
    14    7   13 ar   
    15   11   14 1    
    16   14   15 2    
    17   15   16 1    
    18   16   17 1    
    19   12   17 1    
    20   16   18 2    
    21    1   19 1    
    22    1   20 1    
    23    1   21 1    
    24    2   22 1    
    25    3   23 1    
    26    3   24 1    
    27    3   25 1    
    28    4   26 1    
    29    5   27 1    
    30    5   28 1    
    31   10   29 1    
    32   13   30 1    
    33   14   31 1    
    34   15   32 1    
@<TRIPOS>SUBSTRUCTURE
     1 ****        2 TEMP              0 ****  ****    0 ROOT 
@<TRIPOS>NORMAL
@<TRIPOS>FF_PBC
FORCE_FIELD_SETUP_FEATURE Force Field Setup information
v1.0  0 0.000000 0.000000 0.000000 0.000000 0.000000 0.000000 NONE 0 0 0 0 1 0 0 0 0 0 0 0 0
@<TRIPOS>RENDERING_ATTRS
ANTIALIASED_LINES 
*
