#	Name:			PISM01038
#	Creating user name:	malab
#	Creation time:		Thu Jul 04 18:17:05 2019

#	Modifying user name:	malab
#	Modification time:	Thu Jul 04 18:22:27 2019

@<TRIPOS>MOLECULE
PISM01038
   39    40     1     1     0
SMALL
GAST_HUCK


@<TRIPOS>ATOM
      1 N1          3.9360    9.7753   30.3123 N.2       1 CN         -0.1706 
      2 C2          5.0028   10.0824   30.9476 C.2       1 CN          0.0667 
      3 N3          5.1811   11.4269   30.4865 N.2       1 CN         -0.2811 
      4 C4          4.2684   11.7454   29.6872 C.2       1 CN          0.1515 
      5 N5          3.4305   10.7594   29.5108 N.pl3     1 CN         -0.1178 
      6 C6          2.3545   10.7166   28.7584 C.2       1 CN          0.1434 
      7 C7          1.6079    9.3841   28.7726 C.3       1 CN          0.1365 
      8 C8          2.1575    8.3421   27.7406 C.3       1 CN          0.0057 
      9 C9          3.6397    7.9706   28.0369 C.3       1 CN         -0.0550 
     10 C10         1.2990    7.0420   27.8179 C.3       1 CN         -0.0550 
     11 C11         2.0661    8.9056   26.2919 C.3       1 CN         -0.0550 
     12 O12         1.5998    8.7874   30.0852 O.3       1 CN         -0.3700 
     13 C13         1.9329   11.7655   28.0269 C.2       1 CN         -0.0257 
     14 C14         0.6722   11.7871   27.1902 C.ar      1 CN         -0.0423 
     15 C15         0.7689   11.9380   25.8033 C.ar      1 CN         -0.0578 
     16 C16        -0.3815   11.9025   25.0100 C.ar      1 CN         -0.0376 
     17 C17        -1.6360   11.7381   25.6044 C.ar      1 CN          0.0837 
     18 C18        -1.7393   11.6341   26.9945 C.ar      1 CN         -0.0376 
     19 C19        -0.5885   11.6799   27.7869 C.ar      1 CN         -0.0578 
     20 C          -2.8206   11.6780   24.7860 C.1       1 CN          0.0876 
     21 N          -3.7722   11.6295   24.1286 N.1       1 CN         -0.3388 
     22 H1          5.5998    9.4896   31.6392 H         1 CN          0.0887 
     23 H2          4.2834   12.7463   29.2615 H         1 CN          0.1397 
     24 H3          0.5510    9.5322   28.5115 H         1 CN          0.0866 
     25 H4          3.7407    7.5641   29.0544 H         1 CN          0.0238 
     26 H5          4.2962    8.8474   27.9357 H         1 CN          0.0238 
     27 H6          3.9952    7.2051   27.3303 H         1 CN          0.0238 
     28 H7          1.6530    6.2947   27.0911 H         1 CN          0.0238 
     29 H8          0.2416    7.2551   27.5977 H         1 CN          0.0238 
     30 H9          1.3583    6.5932   28.8212 H         1 CN          0.0238 
     31 H10         2.6969    9.7994   26.1802 H         1 CN          0.0238 
     32 H11         1.0273    9.1686   26.0410 H         1 CN          0.0238 
     33 H12         2.4122    8.1579   25.5619 H         1 CN          0.0238 
     34 H13         1.2786    9.3720   30.7648 H         1 CN          0.2144 
     35 H14         2.4633   12.7111   27.9649 H         1 CN          0.0335 
     36 H15         1.7395   12.0806   25.3387 H         1 CN          0.0562 
     37 H16        -0.3006   12.0022   23.9318 H         1 CN          0.0688 
     38 H17        -2.7140   11.5195   27.4591 H         1 CN          0.0688 
     39 H18        -0.6773   11.6373   28.8683 H         1 CN          0.0562 
@<TRIPOS>BOND
     1    1    2 2    
     2    2    3 1    
     3    4    3 2    
     4    5    4 1    
     5    5    1 1    
     6    6    5 1    
     7    6    7 1    
     8    7    8 1    
     9    8    9 1    
    10    8   10 1    
    11    8   11 1    
    12    7   12 1    
    13   13    6 2    
    14   14   13 1    
    15   15   14 ar   
    16   16   15 ar   
    17   17   16 ar   
    18   17   18 ar   
    19   18   19 ar   
    20   19   14 ar   
    21   20   21 3    
    22   20   17 1    
    23    2   22 1    
    24    4   23 1    
    25    7   24 1    
    26    9   25 1    
    27    9   26 1    
    28    9   27 1    
    29   10   28 1    
    30   10   29 1    
    31   10   30 1    
    32   11   31 1    
    33   11   32 1    
    34   11   33 1    
    35   12   34 1    
    36   13   35 1    
    37   15   36 1    
    38   16   37 1    
    39   18   38 1    
    40   19   39 1    
@<TRIPOS>SUBSTRUCTURE
     1 CN         20 PERM              0 ****  ****    0 ROOT 
@<TRIPOS>NORMAL
@<TRIPOS>FF_PBC
FORCE_FIELD_SETUP_FEATURE Force Field Setup information
v1.0  0 0.000000 0.000000 0.000000 0.000000 0.000000 0.000000 NONE 0 0 0 0 1 0 0 0 0 0 0 0 0
