#	Name:			PISM00634
#	Creating user name:	baoopengkun
#	Creation time:		Mon Dec 10 11:50:22 2018

#	Modifying user name:	baoopengkun
#	Modification time:	Mon Dec 10 11:50:38 2018

@<TRIPOS>MOLECULE
PISM00634
   49    53     1     2     0
SMALL
GAST_HUCK


@<TRIPOS>ATOM
      1 C1          2.2186   -2.7917   -7.2252 C.ar      1 <1>        -0.0348 
      2 C2          2.0464   -1.5539   -6.5995 C.ar      1 <1>        -0.0180 
      3 C3          1.9031   -0.3964   -7.3692 C.ar      1 <1>         0.0714 
      4 C4          1.9301   -0.4784   -8.7642 C.ar      1 <1>        -0.0180 
      5 C5          2.0990   -1.7171   -9.3896 C.ar      1 <1>        -0.0348 
      6 C6          2.2478   -2.8761   -8.6212 C.ar      1 <1>         0.0068 
      7 C7          2.4332   -4.2410   -9.2980 C.3       1 <1>         0.1921 
      8 C8          1.0465   -4.8961   -9.4880 C.3       1 <1>         0.1073 
      9 N9          0.2731   -4.8008   -8.2576 N.pl3     1 <1>        -0.1814 
     10 N10         0.2950   -5.6769   -7.2146 N.2       1 <1>        -0.1908 
     11 C11        -0.4993   -5.3490   -6.2645 C.2       1 <1>         0.0618 
     12 N12        -1.0735   -4.1442   -6.7970 N.2       1 <1>        -0.2870 
     13 C13        -0.5966   -3.8941   -7.9301 C.2       1 <1>         0.1270 
     14 O14         3.1610   -4.1420  -10.5298 O.3       1 <1>        -0.3758 
     15 C15         4.5320   -3.8919  -10.1835 C.3       1 <1>         0.1000 
     16 C16         4.6540   -4.5444   -8.7795 C.3       1 <1>         0.0672 
     17 O17         3.3418   -5.0809   -8.5739 O.3       1 <1>        -0.3814 
     18 C18         5.5148   -4.4204  -11.2668 C.3       1 <1>         0.0957 
     19 O19         5.2004   -5.7235  -11.7920 O.3       1 <1>        -0.3208 
     20 C20         5.1908   -6.7714  -10.8771 C.ar      1 <1>         0.0856 
     21 C21         3.9744   -7.3321  -10.4846 C.ar      1 <1>        -0.0346 
     22 C22         3.9471   -8.3356   -9.5125 C.ar      1 <1>        -0.0274 
     23 C23         5.1392   -8.8098   -8.9581 C.ar      1 <1>         0.1317 
     24 C24         6.3599   -8.2748   -9.3854 C.ar      1 <1>         0.0160 
     25 C25         6.3881   -7.2640  -10.3515 C.ar      1 <1>        -0.0270 
     26 H1          2.3249   -3.6912   -6.6258 H         1 <1>         0.0849 
     27 H2          2.0227   -1.4903   -5.5164 H         1 <1>         0.0703 
     28 Cl28        1.6892    1.1561   -6.5864 Cl        1 <1>        -0.0420 
     29 H4          1.8190    0.4219   -9.3601 H         1 <1>         0.0703 
     30 H5          2.1129   -1.7785  -10.4736 H         1 <1>         0.0849 
     31 H6          1.1707   -5.9550   -9.7524 H         1 <1>         0.0595 
     32 H7          0.5218   -4.3878  -10.3110 H         1 <1>         0.0595 
     33 H8         -0.6870   -5.8489   -5.3154 H         1 <1>         0.0863 
     34 H9         -0.8830   -3.0333   -8.5334 H         1 <1>         0.1361 
     35 H10         4.6750   -2.8018  -10.0799 H         1 <1>         0.0635 
     36 H11         4.8548   -3.7872   -8.0036 H         1 <1>         0.0576 
     37 H12         5.4125   -5.3335   -8.6919 H         1 <1>         0.0576 
     38 H13         6.5472   -4.3882  -10.8852 H         1 <1>         0.0636 
     39 H14         5.4527   -3.7491  -12.1373 H         1 <1>         0.0636 
     40 H15         3.0566   -6.9795  -10.9398 H         1 <1>         0.0563 
     41 C41         7.6378   -8.8088   -8.7840 C.2       1 <1>        -0.0408 
     42 C42         7.5395   -9.7698   -7.8626 C.2       1 <1>         0.0210 
     43 C43         6.2221  -10.2865   -7.4519 C.2       1 <1>         0.2614 
     44 H19         7.3331   -6.8586  -10.6954 H         1 <1>         0.0537 
     45 O45         5.0895   -9.8144   -7.9859 O.3       1 <1>        -0.2152 
     46 O46         6.1602  -11.1638   -6.6072 O.2       1 <1>        -0.3754 
     47 H3          2.9998   -8.7504   -9.1845 H         1 <1>         0.0546 
     48 H16         8.6096   -8.4214   -9.0925 H         1 <1>         0.0743 
     49 H17         8.4314  -10.1895   -7.3973 H         1 <1>         0.0634 
@<TRIPOS>BOND
     1    2    1 ar   
     2    2    3 ar   
     3    3    4 ar   
     4    4    5 ar   
     5    5    6 ar   
     6    1    6 ar   
     7    6    7 1    
     8    7    8 1    
     9    8    9 1    
    10    9   10 1    
    11   10   11 2    
    12   11   12 1    
    13   12   13 2    
    14    9   13 1    
    15    7   14 1    
    16   14   15 1    
    17   15   16 1    
    18   16   17 1    
    19    7   17 1    
    20   15   18 1    
    21   18   19 1    
    22   19   20 1    
    23   20   21 ar   
    24   21   22 ar   
    25   22   23 ar   
    26   23   24 ar   
    27   24   25 ar   
    28   20   25 ar   
    29    1   26 1    
    30    2   27 1    
    31    3   28 1    
    32    4   29 1    
    33    5   30 1    
    34    8   31 1    
    35    8   32 1    
    36   11   33 1    
    37   13   34 1    
    38   15   35 1    
    39   16   36 1    
    40   16   37 1    
    41   18   38 1    
    42   18   39 1    
    43   21   40 1    
    44   24   41 1    
    45   41   42 2    
    46   42   43 1    
    47   25   44 1    
    48   43   45 1    
    49   23   45 1    
    50   43   46 2    
    51   22   47 1    
    52   41   48 1    
    53   42   49 1    
@<TRIPOS>SUBSTRUCTURE
     1 ****        2 TEMP              0 ****  ****    0 ROOT 
@<TRIPOS>NORMAL
@<TRIPOS>FF_PBC
FORCE_FIELD_SETUP_FEATURE Force Field Setup information
v1.0  0 0.000000 0.000000 0.000000 0.000000 0.000000 0.000000 NONE 0 0 0 0 1 0 0 0 0 0 0 0 0
@<TRIPOS>RENDERING_ATTRS
ANTIALIASED_LINES 
*
