#	Name:			PISM00345
#	Creating user name:	baoopengkun
#	Creation time:		Sun Mar 31 18:46:55 2019

#	Modifying user name:	baoopengkun
#	Modification time:	Sun Mar 31 18:53:44 2019

@<TRIPOS>MOLECULE
PISM00345
   76    76     1     2     0
SMALL
GAST_HUCK


@<TRIPOS>ATOM
      1 C1          9.1429   -4.7146  -12.8019 C.3       1 <1>        -0.0486 
      2 C2          8.5476   -6.0482  -12.2731 C.3       1 <1>         0.0225 
      3 C3          7.7438   -5.7910  -11.0340 C.2       1 <1>         0.1783 
      4 C4          7.1080   -4.4826  -10.7988 C.2       1 <1>         0.1080 
      5 C5          7.2109   -3.4777  -11.6848 C.2       1 <1>        -0.0545 
      6 C6          8.0038   -3.6585  -12.9721 C.3       1 <1>         0.0241 
      7 C7         10.2057   -4.1837  -11.7880 C.3       1 <1>        -0.0722 
      8 C8          9.8478   -4.9884  -14.1644 C.3       1 <1>        -0.0722 
      9 O9          7.6231   -6.6819  -10.2086 O.2       1 <1>        -0.3530 
     10 S10         6.1961   -4.3082   -9.2693 S.3       1 <1>        -0.0484 
     11 C11         6.5463   -2.1282  -11.4837 C.3       1 <1>        -0.0414 
     12 C12         7.0002   -4.0990  -14.0184 C.2       1 <1>        -0.0993 
     13 C13         6.9491   -3.6105  -15.2643 C.2       1 <1>        -0.0245 
     14 C14         5.9445   -4.0693  -16.2440 C.2       1 <1>         0.0167 
     15 C15         5.8500   -5.5488  -16.5329 C.3       1 <1>        -0.0145 
     16 C16         5.1370   -3.2001  -16.8701 C.2       1 <1>         0.0580 
     17 C17         5.0938   -1.7393  -16.6614 C.2       1 <1>         0.2688 
     18 O18         5.8061   -1.2043  -15.8282 O.2       1 <1>        -0.3498 
     19 O19         4.2562   -0.9990  -17.3910 O.3       1 <1>        -0.2928 
     20 O20         8.6634   -2.4405  -13.3703 O.3       1 <1>        -0.4725 
     21 C21         7.5700   -3.5520   -8.3413 C.3       1 <1>         0.0189 
     22 C22         7.0338   -3.0746   -6.9682 C.3       1 <1>        -0.0402 
     23 C23         8.1600   -2.4259   -6.1185 C.3       1 <1>        -0.0520 
     24 C24         7.6132   -1.9268   -4.7533 C.3       1 <1>        -0.0530 
     25 C25         8.7396   -1.3046   -3.8852 C.3       1 <1>        -0.0531 
     26 C26         8.1861   -0.8015   -2.5244 C.3       1 <1>        -0.0531 
     27 C27         9.3143   -0.1959   -1.6455 C.3       1 <1>        -0.0531 
     28 C28         8.7604    0.3187   -0.2891 C.3       1 <1>        -0.0531 
     29 C29         9.8913    0.9193    0.5890 C.3       1 <1>        -0.0531 
     30 C30         9.3379    1.4425    1.9425 C.3       1 <1>        -0.0533 
     31 C31        10.4737    2.0147    2.8347 C.3       1 <1>        -0.0559 
     32 C32         9.9229    2.5155    4.1954 C.3       1 <1>        -0.0653 
     33 H1          9.3609   -6.7523  -12.0378 H         1 <1>         0.0479 
     34 H2          7.8928   -6.5317  -13.0121 H         1 <1>         0.0479 
     35 H3         11.0104   -4.9213  -11.6448 H         1 <1>         0.0220 
     36 H4          9.7648   -3.9713  -10.8030 H         1 <1>         0.0220 
     37 H5         10.6666   -3.2547  -12.1558 H         1 <1>         0.0220 
     38 H6          9.1445   -5.4011  -14.9022 H         1 <1>         0.0220 
     39 H7         10.6654   -5.7149  -14.0362 H         1 <1>         0.0220 
     40 H8         10.2737   -4.0611  -14.5760 H         1 <1>         0.0220 
     41 H9          5.8529   -2.0844  -10.6331 H         1 <1>         0.0386 
     42 H10         5.9647   -1.8753  -12.3828 H         1 <1>         0.0386 
     43 H11         7.3163   -1.3600  -11.3197 H         1 <1>         0.0386 
     44 H12         6.2693   -4.8597  -13.7394 H         1 <1>         0.0493 
     45 H13         7.6560   -2.8521  -15.6006 H         1 <1>         0.1042 
     46 H14         5.7028   -5.7325  -17.6078 H         1 <1>         0.0429 
     47 H15         5.0035   -5.9773  -15.9784 H         1 <1>         0.0429 
     48 H16         6.7708   -6.0651  -16.2233 H         1 <1>         0.0429 
     49 H17         4.4223   -3.5719  -17.6031 H         1 <1>         0.0917 
     50 H18         4.3090   -0.0774  -17.1634 H         1 <1>         0.2516 
     51 H19         8.0884   -1.7095  -13.5659 H         1 <1>         0.1785 
     52 H20         7.9709   -2.6971   -8.9080 H         1 <1>         0.0422 
     53 H21         8.3663   -4.3018   -8.2112 H         1 <1>         0.0422 
     54 H22         6.6131   -3.9366   -6.4243 H         1 <1>         0.0276 
     55 H23         6.2274   -2.3407   -7.1331 H         1 <1>         0.0276 
     56 H24         8.5932   -1.5750   -6.6707 H         1 <1>         0.0266 
     57 H25         8.9577   -3.1678   -5.9461 H         1 <1>         0.0266 
     58 H26         7.1612   -2.7732   -4.2104 H         1 <1>         0.0265 
     59 H27         6.8294   -1.1717   -4.9299 H         1 <1>         0.0265 
     60 H28         9.1956   -0.4610   -4.4278 H         1 <1>         0.0265 
     61 H29         9.5195   -2.0617   -3.7045 H         1 <1>         0.0265 
     62 H30         7.7180   -1.6426   -1.9866 H         1 <1>         0.0265 
     63 H31         7.4139   -0.0356   -2.7052 H         1 <1>         0.0265 
     64 H32         9.7880    0.6400   -2.1863 H         1 <1>         0.0265 
     65 H33        10.0819   -0.9655   -1.4590 H         1 <1>         0.0265 
     66 H34         8.2849   -0.5170    0.2501 H         1 <1>         0.0265 
     67 H35         7.9950    1.0890   -0.4768 H         1 <1>         0.0265 
     68 H36        10.3742    1.7498    0.0483 H         1 <1>         0.0265 
     69 H37        10.6510    0.1438    0.7813 H         1 <1>         0.0265 
     70 H38         8.8388    0.6162    2.4761 H         1 <1>         0.0265 
     71 H39         8.5913    2.2316    1.7522 H         1 <1>         0.0265 
     72 H40        10.9666    2.8520    2.3127 H         1 <1>         0.0263 
     73 H41        11.2278    1.2310    3.0192 H         1 <1>         0.0263 
     74 H42        10.7429    2.9132    4.8143 H         1 <1>         0.0230 
     75 H43         9.4420    1.6890    4.7413 H         1 <1>         0.0230 
     76 H44         9.1824    3.3149    4.0388 H         1 <1>         0.0230 
@<TRIPOS>BOND
     1    2    1 1    
     2    2    3 1    
     3    3    4 1    
     4    4    5 2    
     5    5    6 1    
     6    1    6 1    
     7    1    7 1    
     8    1    8 1    
     9    3    9 2    
    10    4   10 1    
    11    5   11 1    
    12    6   12 1    
    13   12   13 2    
    14   13   14 1    
    15   14   15 1    
    16   14   16 2    
    17   16   17 1    
    18   17   18 2    
    19   17   19 1    
    20    6   20 1    
    21   10   21 1    
    22   21   22 1    
    23   22   23 1    
    24   23   24 1    
    25   24   25 1    
    26   25   26 1    
    27   26   27 1    
    28   27   28 1    
    29   28   29 1    
    30   29   30 1    
    31   30   31 1    
    32   31   32 1    
    33    2   33 1    
    34    2   34 1    
    35    7   35 1    
    36    7   36 1    
    37    7   37 1    
    38    8   38 1    
    39    8   39 1    
    40    8   40 1    
    41   11   41 1    
    42   11   42 1    
    43   11   43 1    
    44   12   44 1    
    45   13   45 1    
    46   15   46 1    
    47   15   47 1    
    48   15   48 1    
    49   16   49 1    
    50   19   50 1    
    51   20   51 1    
    52   21   52 1    
    53   21   53 1    
    54   22   54 1    
    55   22   55 1    
    56   23   56 1    
    57   23   57 1    
    58   24   58 1    
    59   24   59 1    
    60   25   60 1    
    61   25   61 1    
    62   26   62 1    
    63   26   63 1    
    64   27   64 1    
    65   27   65 1    
    66   28   66 1    
    67   28   67 1    
    68   29   68 1    
    69   29   69 1    
    70   30   70 1    
    71   30   71 1    
    72   31   72 1    
    73   31   73 1    
    74   32   74 1    
    75   32   75 1    
    76   32   76 1    
@<TRIPOS>SUBSTRUCTURE
     1 ****        2 TEMP              0 ****  ****    0 ROOT 
@<TRIPOS>NORMAL
@<TRIPOS>FF_PBC
FORCE_FIELD_SETUP_FEATURE Force Field Setup information
v1.0  0 0.000000 0.000000 0.000000 0.000000 0.000000 0.000000 NONE 0 0 0 0 1 0 0 0 0 0 0 0 0
@<TRIPOS>RENDERING_ATTRS
ANTIALIASED_LINES 
*
