#	Name:			PISM00067
#	Creating user name:	baoopengkun
#	Creation time:		Thu Dec 27 11:33:00 2018

#	Modifying user name:	baoopengkun
#	Modification time:	Thu Dec 27 11:35:41 2018

@<TRIPOS>MOLECULE
PISM00067
   40    41     1     1     0
SMALL
GAST_HUCK


@<TRIPOS>ATOM
      1 C1        -13.7485   11.3582   -3.9787 C.3       1 <1>        -0.0475 
      2 C2        -13.1640   12.6717   -4.5616 C.3       1 <1>         0.0398 
      3 C3        -13.7977   13.9116   -3.9729 C.2       1 <1>         0.2002 
      4 O4        -14.6438   13.7764   -3.1047 O.2       1 <1>        -0.3795 
      5 N5        -13.4065   15.0805   -4.4097 N.pl3     1 <1>        -0.2421 
      6 C6        -13.9329   16.2382   -3.9382 C.ar      1 <1>         0.0515 
      7 C7        -15.3154   16.4006   -3.7866 C.ar      1 <1>        -0.0515 
      8 C8        -15.8341   17.5887   -3.2637 C.ar      1 <1>        -0.0815 
      9 C9        -14.9747   18.6351   -2.9189 C.ar      1 <1>        -0.0505 
     10 C10       -13.5961   18.4994   -3.1095 C.ar      1 <1>         0.0558 
     11 C11       -13.0820   17.2990   -3.6088 C.ar      1 <1>        -0.0179 
     12 N12       -12.7546   19.5152   -2.8022 N.pl3     1 <1>        -0.2370 
     13 C13       -12.8027   20.6695   -3.4220 C.2       1 <1>         0.1866 
     14 S14       -13.9476   20.8849   -4.6874 S.2       1 <1>        -0.2687 
     15 N15       -11.9512   21.6706   -3.0751 N.am      1 <1>        -0.1914 
     16 C16       -11.8880   22.9142   -3.6111 C.2       1 <1>         0.2421 
     17 O17       -12.6491   23.3064   -4.4776 O.2       1 <1>        -0.3693 
     18 C18       -10.8360   23.9001   -3.1434 C.ar      1 <1>         0.0712 
     19 C19        -9.5156   23.4790   -2.9427 C.ar      1 <1>        -0.0410 
     20 C20        -8.5429   24.3800   -2.4999 C.ar      1 <1>        -0.0561 
     21 C21        -8.8776   25.7193   -2.2858 C.ar      1 <1>        -0.0571 
     22 C22       -10.1897   26.1484   -2.5017 C.ar      1 <1>        -0.0422 
     23 C23       -11.1698   25.2409   -2.9142 C.ar      1 <1>         0.0612 
     24 Cl24      -12.8146   25.8108   -3.1250 Cl        1 <1>        -0.0646 
     25 H1        -14.8301   11.3018   -4.1787 H         1 <1>         0.0255 
     26 H2        -13.5874   11.3188   -2.8898 H         1 <1>         0.0255 
     27 H3        -13.2594   10.4850   -4.4385 H         1 <1>         0.0255 
     28 H4        -13.3215   12.6814   -5.6519 H         1 <1>         0.0508 
     29 H5        -12.0813   12.7037   -4.3614 H         1 <1>         0.0508 
     30 H6        -12.6618   15.1336   -5.1202 H         1 <1>         0.2106 
     31 H7        -15.9970   15.6095   -4.0813 H         1 <1>         0.0435 
     32 H8        -16.9056   17.6994   -3.1267 H         1 <1>         0.0558 
     33 H9        -15.3781   19.5519   -2.5008 H         1 <1>         0.0436 
     34 H10       -12.0106   17.1923   -3.7400 H         1 <1>         0.0439 
     35 H11       -12.0553   19.3466   -2.0657 H         1 <1>         0.2183 
     36 H12       -11.3083   21.4925   -2.3355 H         1 <1>         0.2372 
     37 H13        -9.2304   22.4505   -3.1396 H         1 <1>         0.0670 
     38 H14        -7.5259   24.0409   -2.3254 H         1 <1>         0.0630 
     39 H15        -8.1211   26.4242   -1.9536 H         1 <1>         0.0653 
     40 H16       -10.4511   27.1903   -2.3460 H         1 <1>         0.0635 
@<TRIPOS>BOND
     1    2    1 1    
     2    2    3 1    
     3    3    4 2    
     4    3    5 1    
     5    5    6 1    
     6    6    7 ar   
     7    7    8 ar   
     8    8    9 ar   
     9    9   10 ar   
    10   10   11 ar   
    11    6   11 ar   
    12   10   12 1    
    13   12   13 1    
    14   13   14 2    
    15   13   15 am   
    16   15   16 am   
    17   16   17 2    
    18   16   18 1    
    19   18   19 ar   
    20   19   20 ar   
    21   20   21 ar   
    22   21   22 ar   
    23   22   23 ar   
    24   18   23 ar   
    25   23   24 1    
    26    1   25 1    
    27    1   26 1    
    28    1   27 1    
    29    2   28 1    
    30    2   29 1    
    31    5   30 1    
    32    7   31 1    
    33    8   32 1    
    34    9   33 1    
    35   11   34 1    
    36   12   35 1    
    37   15   36 1    
    38   19   37 1    
    39   20   38 1    
    40   21   39 1    
    41   22   40 1    
@<TRIPOS>SUBSTRUCTURE
     1 ****        2 TEMP              0 ****  ****    0 ROOT 
@<TRIPOS>NORMAL
@<TRIPOS>FF_PBC
FORCE_FIELD_SETUP_FEATURE Force Field Setup information
v1.0  0 0.000000 0.000000 0.000000 0.000000 0.000000 0.000000 NONE 0 0 0 0 1 0 0 0 0 0 0 0 0
