#	Name:			PISM00476
#	Creating user name:	baoopengkun
#	Creation time:		Wed Feb 27 21:24:50 2019

#	Modifying user name:	baoopengkun
#	Modification time:	Wed Feb 27 21:28:12 2019

@<TRIPOS>MOLECULE
PISM00476
   56    60     1     1     0
SMALL
GAST_HUCK


@<TRIPOS>ATOM
      1 O1         13.4854    4.7396  -22.8823 O.3       1 <1>        -0.2496 
      2 S2         13.9522    3.4954  -22.1803 S.o2      1 <1>         0.1105 
      3 O3         12.8235    2.5980  -22.0176 O.2       1 <1>        -0.1418 
      4 O4         15.1442    3.0214  -22.8553 O.2       1 <1>        -0.1418 
      5 C5         14.4213    4.1296  -20.5830 C.ar      1 <1>         0.1189 
      6 C6         13.5046    4.1176  -19.5268 C.ar      1 <1>        -0.0315 
      7 C7         13.8384    4.7033  -18.3039 C.ar      1 <1>        -0.0486 
      8 C8         15.0836    5.3176  -18.1403 C.ar      1 <1>        -0.0082 
      9 C9         16.0304    5.2657  -19.1682 C.ar      1 <1>        -0.0486 
     10 C10        15.6935    4.6807  -20.3919 C.ar      1 <1>        -0.0315 
     11 C11        15.3664    6.0421  -16.8781 C.ar      1 <1>         0.0042 
     12 C12        14.7721    7.2974  -16.7246 C.ar      1 <1>        -0.0232 
     13 C13        14.9505    8.0060  -15.5343 C.ar      1 <1>         0.0238 
     14 N14        15.7488    7.4984  -14.5766 N.ar      1 <1>        -0.2968 
     15 C15        16.3281    6.2844  -14.6934 C.ar      1 <1>         0.0584 
     16 C16        16.1665    5.5210  -15.8531 C.ar      1 <1>         0.0102 
     17 C17        14.2538    9.3412  -15.2889 C.3       1 <1>        -0.0148 
     18 C18        16.7848    4.2657  -15.9228 C.ar      1 <1>        -0.0489 
     19 C19        17.5043    3.7701  -14.8292 C.ar      1 <1>        -0.0489 
     20 C20        17.7731    4.5705  -13.7100 C.ar      1 <1>         0.0102 
     21 C21        17.0827    5.7884  -13.6255 C.ar      1 <1>         0.0584 
     22 C22        18.6312    4.2526  -12.6385 C.ar      1 <1>         0.0042 
     23 C23        18.2032    4.7381  -11.3955 C.ar      1 <1>        -0.0232 
     24 C24        17.4775    5.9281  -11.3313 C.ar      1 <1>         0.0238 
     25 N25        17.1100    6.5090  -12.4859 N.ar      1 <1>        -0.2968 
     26 C26        17.1096    6.5686   -9.9962 C.3       1 <1>        -0.0148 
     27 C27        19.9238    3.4902  -12.6571 C.ar      1 <1>        -0.0082 
     28 C28        20.3749    2.6523  -13.6881 C.ar      1 <1>        -0.0486 
     29 C29        21.3543    1.6844  -13.4400 C.ar      1 <1>        -0.0315 
     30 C30        22.0203    1.6582  -12.2116 C.ar      1 <1>         0.1189 
     31 C31        21.7896    2.6899  -11.3009 C.ar      1 <1>        -0.0315 
     32 C32        20.7869    3.6248  -11.5577 C.ar      1 <1>        -0.0486 
     33 S33        23.1867    0.3744  -11.8176 S.o2      1 <1>         0.1105 
     34 O34        24.3791    0.5833  -12.6121 O.2       1 <1>        -0.1418 
     35 O35        23.3016    0.2686  -10.3756 O.2       1 <1>        -0.1418 
     36 O36        22.4814   -0.8480  -12.3362 O.3       1 <1>        -0.2496 
     37 H1         12.6466    5.0314  -22.5436 H         1 <1>         0.2449 
     38 H2         12.5309    3.6551  -19.6517 H         1 <1>         0.0643 
     39 H3         13.1274    4.6850  -17.4830 H         1 <1>         0.0644 
     40 H4         17.0198    5.6862  -19.0173 H         1 <1>         0.0644 
     41 H5         16.4222    4.6585  -21.1960 H         1 <1>         0.0643 
     42 H6         14.1684    7.7180  -17.5222 H         1 <1>         0.0660 
     43 H7         14.8587   10.1485  -15.7219 H         1 <1>         0.0427 
     44 H8         14.1513    9.5066  -14.2068 H         1 <1>         0.0427 
     45 H9         13.2537    9.3446  -15.7447 H         1 <1>         0.0427 
     46 H10        16.6962    3.6590  -16.8199 H         1 <1>         0.0631 
     47 H11        17.8147    2.7337  -14.8552 H         1 <1>         0.0631 
     48 H12        18.4297    4.2080  -10.4754 H         1 <1>         0.0660 
     49 H13        16.3807    5.9287   -9.4797 H         1 <1>         0.0427 
     50 H14        16.6678    7.5601  -10.1651 H         1 <1>         0.0427 
     51 H15        18.0104    6.6755   -9.3760 H         1 <1>         0.0427 
     52 H16        19.9992    2.7409  -14.6966 H         1 <1>         0.0644 
     53 H17        21.6113    0.9556  -14.2031 H         1 <1>         0.0643 
     54 H18        22.3889    2.7671  -10.3992 H         1 <1>         0.0643 
     55 H19        20.7005    4.4674  -10.8803 H         1 <1>         0.0644 
     56 H20        21.7769   -1.1096  -11.7528 H         1 <1>         0.2449 
@<TRIPOS>BOND
     1    2    1 1    
     2    2    3 2    
     3    2    4 2    
     4    2    5 1    
     5    5    6 ar   
     6    6    7 ar   
     7    7    8 ar   
     8    8    9 ar   
     9    9   10 ar   
    10    5   10 ar   
    11    8   11 1    
    12   11   12 ar   
    13   12   13 ar   
    14   13   14 ar   
    15   14   15 ar   
    16   15   16 ar   
    17   11   16 ar   
    18   13   17 1    
    19   16   18 ar   
    20   18   19 ar   
    21   19   20 ar   
    22   20   21 ar   
    23   15   21 ar   
    24   20   22 ar   
    25   22   23 ar   
    26   23   24 ar   
    27   24   25 ar   
    28   21   25 ar   
    29   24   26 1    
    30   22   27 1    
    31   27   28 ar   
    32   28   29 ar   
    33   29   30 ar   
    34   30   31 ar   
    35   31   32 ar   
    36   27   32 ar   
    37   30   33 1    
    38   33   34 2    
    39   33   35 2    
    40   33   36 1    
    41    1   37 1    
    42    6   38 1    
    43    7   39 1    
    44    9   40 1    
    45   10   41 1    
    46   12   42 1    
    47   17   43 1    
    48   17   44 1    
    49   17   45 1    
    50   18   46 1    
    51   19   47 1    
    52   23   48 1    
    53   26   49 1    
    54   26   50 1    
    55   26   51 1    
    56   28   52 1    
    57   29   53 1    
    58   31   54 1    
    59   32   55 1    
    60   36   56 1    
@<TRIPOS>SUBSTRUCTURE
     1 ****        2 TEMP              0 ****  ****    0 ROOT 
@<TRIPOS>NORMAL
@<TRIPOS>FF_PBC
FORCE_FIELD_SETUP_FEATURE Force Field Setup information
v1.0  0 0.000000 0.000000 0.000000 0.000000 0.000000 0.000000 NONE 0 0 0 0 1 0 0 0 0 0 0 0 0
