#	Name:			PISM00806
#	Creating user name:	baoopengkun
#	Creation time:		Sat Dec 15 02:25:18 2018

#	Modifying user name:	baoopengkun
#	Modification time:	Sat Dec 15 02:27:23 2018

@<TRIPOS>MOLECULE
PISM00806
   34    34     1     1     0
SMALL
GAST_HUCK


@<TRIPOS>ATOM
      1 C1         12.2405   18.3945  -53.7088 C.3       1 <1>         0.0634 
      2 O2         12.0814   19.8161  -53.5512 O.3       1 <1>        -0.2878 
      3 C3         11.0891   20.2539  -52.7515 C.2       1 <1>         0.2277 
      4 O4         10.9760   21.4616  -52.6231 O.2       1 <1>        -0.3781 
      5 C5         10.1459   19.3558  -52.0338 C.2       1 <1>        -0.0031 
      6 C6          9.2108   19.8303  -51.1969 C.2       1 <1>        -0.0632 
      7 C7          8.2346   19.0066  -50.4396 C.2       1 <1>        -0.0196 
      8 C8          8.5113   17.5372  -50.2011 C.3       1 <1>        -0.0402 
      9 C9          7.1153   19.5752  -49.9647 C.2       1 <1>         0.0829 
     10 O10         6.2287   18.8369  -49.2795 O.3       1 <1>        -0.2621 
     11 C11         5.0128   19.5201  -48.9173 C.3       1 <1>         0.2492 
     12 C12         4.0396   19.6146  -50.0756 C.2       1 <1>         0.0166 
     13 C13         2.9465   18.8833  -49.8634 C.2       1 <1>         0.0197 
     14 C14         3.1960   18.3106  -48.5460 C.2       1 <1>         0.2325 
     15 O15         4.3423   18.6602  -47.9739 O.3       1 <1>        -0.2322 
     16 C16         1.7468   18.6866  -50.7505 C.3       1 <1>        -0.0421 
     17 C17         4.3546   20.4604  -51.2841 C.3       1 <1>        -0.0222 
     18 O18         2.4055   17.5642  -47.9951 O.2       1 <1>        -0.3822 
     19 H1         13.1016   18.2456  -54.3767 H         1 <1>         0.0573 
     20 H2         11.3629   17.9330  -54.1881 H         1 <1>         0.0573 
     21 H3         12.4684   17.8982  -52.7523 H         1 <1>         0.0573 
     22 H4         10.1790   18.2794  -52.1706 H         1 <1>         0.0449 
     23 H5          9.1615   20.9121  -51.0641 H         1 <1>         0.0680 
     24 H6          9.5795   17.3826  -49.9867 H         1 <1>         0.0324 
     25 H7          8.2379   16.9661  -51.1009 H         1 <1>         0.0324 
     26 H8          7.9488   17.1295  -49.3478 H         1 <1>         0.0324 
     27 H9          6.9588   20.6392  -50.1532 H         1 <1>         0.1148 
     28 H10         5.1810   20.4903  -48.4198 H         1 <1>         0.1245 
     29 H11         2.0653   18.3071  -51.7329 H         1 <1>         0.0303 
     30 H12         1.2200   19.6433  -50.8830 H         1 <1>         0.0303 
     31 H13         1.0551   17.9603  -50.2980 H         1 <1>         0.0303 
     32 H14         4.6482   21.4731  -50.9704 H         1 <1>         0.0429 
     33 H15         3.4789   20.5471  -51.9440 H         1 <1>         0.0429 
     34 H16         5.1720   20.0039  -51.8613 H         1 <1>         0.0429 
@<TRIPOS>BOND
     1    2    1 1    
     2    2    3 1    
     3    3    4 2    
     4    3    5 1    
     5    5    6 2    
     6    6    7 1    
     7    7    8 1    
     8    7    9 2    
     9    9   10 1    
    10   10   11 1    
    11   11   12 1    
    12   12   13 2    
    13   13   14 1    
    14   14   15 1    
    15   11   15 1    
    16   13   16 1    
    17   12   17 1    
    18   14   18 2    
    19    1   19 1    
    20    1   20 1    
    21    1   21 1    
    22    5   22 1    
    23    6   23 1    
    24    8   24 1    
    25    8   25 1    
    26    8   26 1    
    27    9   27 1    
    28   11   28 1    
    29   16   29 1    
    30   16   30 1    
    31   16   31 1    
    32   17   32 1    
    33   17   33 1    
    34   17   34 1    
@<TRIPOS>SUBSTRUCTURE
     1 ****        2 TEMP              0 ****  ****    0 ROOT 
@<TRIPOS>NORMAL
@<TRIPOS>FF_PBC
FORCE_FIELD_SETUP_FEATURE Force Field Setup information
v1.0  0 0.000000 0.000000 0.000000 0.000000 0.000000 0.000000 NONE 0 0 0 0 1 0 0 0 0 0 0 0 0
