#	Name:			PISM00790
#	Creating user name:	baoopengkun
#	Creation time:		Tue Jan 08 15:40:47 2019

#	Modifying user name:	baoopengkun
#	Modification time:	Tue Jan 08 15:48:10 2019

@<TRIPOS>MOLECULE
PISM00790
   45    49     1     1     0
SMALL
GAST_HUCK


@<TRIPOS>ATOM
      1 C1         16.5209   -5.4368  -29.9739 C.ar      1 <1>        -0.0694 
      2 C2         15.2702   -6.0804  -29.9673 C.ar      1 <1>        -0.0237 
      3 C3         14.1317   -5.4073  -29.4949 C.ar      1 <1>        -0.0354 
      4 C4         14.2941   -4.1121  -29.0018 C.ar      1 <1>         0.0650 
      5 C5         15.5393   -3.5002  -29.0092 C.ar      1 <1>        -0.0105 
      6 C6         16.6808   -4.1292  -29.4979 C.ar      1 <1>        -0.0705 
      7 C7         15.2328   -2.1580  -28.4018 C.2       1 <1>        -0.0183 
      8 C8         13.9319   -2.1554  -28.1327 C.2       1 <1>         0.1038 
      9 N9         13.3628   -3.2812  -28.4742 N.pl3     1 <1>        -0.2678 
     10 C10        11.9485   -3.5922  -28.3063 C.3       1 <1>         0.0367 
     11 C11        13.5731   -0.8730  -27.5350 C.2       1 <1>         0.1396 
     12 O12        12.4760   -0.4893  -27.1631 O.2       1 <1>        -0.4043 
     13 C13        14.8413   -0.1225  -27.4754 C.2       1 <1>         0.0277 
     14 C14        16.0007   -0.9144  -28.0540 C.3       1 <1>        -0.0035 
     15 C15        14.9656    1.1087  -26.9708 C.2       1 <1>         0.0828 
     16 O16        16.1689    1.7006  -26.9730 O.3       1 <1>        -0.2668 
     17 C17        16.1725    3.0196  -26.3988 C.3       1 <1>         0.2400 
     18 C18        15.2856    3.9792  -27.1568 C.2       1 <1>        -0.0007 
     19 C19        14.3739    4.5059  -26.3411 C.2       1 <1>         0.0293 
     20 C20        14.6592    3.8801  -25.0537 C.2       1 <1>         0.2496 
     21 O21        15.6634    3.0112  -25.0498 O.3       1 <1>        -0.2302 
     22 C22        13.2922    5.4981  -26.6694 C.3       1 <1>        -0.0323 
     23 O23        14.0196    4.1299  -24.0470 O.2       1 <1>        -0.3691 
     24 C24        15.1733   -7.5045  -30.4793 C.2       1 <1>         0.0295 
     25 S25        16.3697   -8.1968  -31.6102 S.3       1 <1>        -0.0404 
     26 C26        15.4553   -9.7214  -31.5907 C.2       1 <1>        -0.0065 
     27 C27        14.3773   -9.6778  -30.8051 C.2       1 <1>        -0.0750 
     28 C28        14.2125   -8.3741  -30.1473 C.2       1 <1>        -0.0697 
     29 H1         17.3964   -5.9551  -30.3493 H         1 <1>         0.0514 
     30 H2         13.1487   -5.8593  -29.5125 H         1 <1>         0.0530 
     31 H3         17.6417   -3.6259  -29.5046 H         1 <1>         0.0563 
     32 H4         11.4027   -2.7628  -27.8308 H         1 <1>         0.0554 
     33 H5         11.8409   -4.4866  -27.6742 H         1 <1>         0.0554 
     34 H6         11.4969   -3.7878  -29.2905 H         1 <1>         0.0554 
     35 H7         16.7822   -1.1169  -27.3062 H         1 <1>         0.0475 
     36 H8         16.4282   -0.4374  -28.9486 H         1 <1>         0.0475 
     37 H9         14.0572    1.5698  -26.5755 H         1 <1>         0.1131 
     38 H10        17.2069    3.3994  -26.3937 H         1 <1>         0.1214 
     39 H11        15.3834    4.2037  -28.2182 H         1 <1>         0.0706 
     40 H12        12.8561    5.2739  -27.6544 H         1 <1>         0.0347 
     41 H13        13.7175    6.5125  -26.6847 H         1 <1>         0.0347 
     42 H14        12.4967    5.4545  -25.9103 H         1 <1>         0.0347 
     43 H15        15.7552  -10.5965  -32.1663 H         1 <1>         0.0737 
     44 H16        13.6922  -10.5136  -30.6634 H         1 <1>         0.0422 
     45 H17        13.3845   -8.1884  -29.4658 H         1 <1>         0.0432 
@<TRIPOS>BOND
     1    2    1 ar   
     2    2    3 ar   
     3    3    4 ar   
     4    4    5 ar   
     5    6    5 ar   
     6    1    6 ar   
     7    5    7 1    
     8    8    7 2    
     9    9    8 1    
    10    4    9 1    
    11    9   10 1    
    12    8   11 1    
    13   11   12 2    
    14   11   13 1    
    15   14   13 1    
    16    7   14 1    
    17   13   15 2    
    18   15   16 1    
    19   16   17 1    
    20   17   18 1    
    21   18   19 2    
    22   20   19 1    
    23   21   20 1    
    24   17   21 1    
    25   19   22 1    
    26   20   23 2    
    27   24   25 1    
    28   24   28 2    
    29   25   26 1    
    30   27   26 2    
    31   28   27 1    
    32    2   24 1    
    33    1   29 1    
    34    3   30 1    
    35    6   31 1    
    36   10   32 1    
    37   10   33 1    
    38   10   34 1    
    39   14   35 1    
    40   14   36 1    
    41   15   37 1    
    42   17   38 1    
    43   18   39 1    
    44   22   40 1    
    45   22   41 1    
    46   22   42 1    
    47   26   43 1    
    48   27   44 1    
    49   28   45 1    
@<TRIPOS>SUBSTRUCTURE
     1 ****        2 TEMP              0 ****  ****    0 ROOT 
@<TRIPOS>NORMAL
@<TRIPOS>FF_PBC
FORCE_FIELD_SETUP_FEATURE Force Field Setup information
v1.0  0 0.000000 0.000000 0.000000 0.000000 0.000000 0.000000 NONE 0 0 0 0 1 0 0 0 0 0 0 0 0
