#	Name:			PISM00108
#	Creating user name:	baoopengkun
#	Creation time:		Mon Dec 17 13:54:37 2018

#	Modifying user name:	baoopengkun
#	Modification time:	Mon Dec 17 13:57:50 2018

@<TRIPOS>MOLECULE
PISM00108
   52    56     1     1     0
SMALL
GAST_HUCK


@<TRIPOS>ATOM
      1 O1         -3.5998    8.4037    0.6344 O.3       1 <1>        -0.2946 
      2 C2         -3.2734    7.6749    1.7039 C.2       1 <1>         0.2551 
      3 O3         -4.0663    6.8625    2.1546 O.2       1 <1>        -0.3609 
      4 C4         -1.9196    7.8560    2.3579 C.ar      1 <1>         0.0545 
      5 C5         -1.0067    8.7865    1.8507 C.ar      1 <1>        -0.0472 
      6 C6          0.2431    8.9580    2.4539 C.ar      1 <1>        -0.0544 
      7 C7          0.6090    8.1894    3.5660 C.ar      1 <1>         0.0029 
      8 C8         -0.3092    7.2622    4.0730 C.ar      1 <1>        -0.0544 
      9 C9         -1.5629    7.0970    3.4772 C.ar      1 <1>        -0.0472 
     10 C10         1.9579    8.3213    4.2455 C.2       1 <1>         0.1132 
     11 C11         2.9957    9.0021    3.7484 C.2       1 <1>        -0.0637 
     12 C12         4.0359    8.8216    4.7578 C.2       1 <1>        -0.0573 
     13 C13         3.4273    8.0659    5.6736 C.2       1 <1>         0.1121 
     14 O14         2.1627    7.7248    5.4248 O.3       1 <1>        -0.2557 
     15 C15         4.0243    7.5536    6.9579 C.3       1 <1>         0.0692 
     16 C16         4.4474    6.1375    6.7381 C.2       1 <1>         0.0419 
     17 C17         5.7160    5.7458    6.8752 C.2       1 <1>         0.0795 
     18 N18         6.6749    6.5575    7.2263 N.pl3     1 <1>        -0.2666 
     19 C19         6.4525    7.8300    7.4745 C.2       1 <1>         0.0593 
     20 C20         5.2272    8.3799    7.3534 C.2       1 <1>         0.0548 
     21 C21         3.6239    4.9790    6.3580 C.2       1 <1>         0.1571 
     22 C22         4.5561    3.8006    6.2547 C.ar      1 <1>         0.0354 
     23 C23         5.8258    4.2680    6.5700 C.ar      1 <1>         0.0183 
     24 O24         2.4195    4.9657    6.1684 O.2       1 <1>        -0.3487 
     25 C25         4.3185    2.4673    5.9228 C.ar      1 <1>        -0.0464 
     26 C26         5.4157    1.5978    5.9161 C.ar      1 <1>        -0.0575 
     27 C27         6.7007    2.0619    6.2336 C.ar      1 <1>        -0.0581 
     28 C28         6.9231    3.4046    6.5651 C.ar      1 <1>        -0.0492 
     29 C29         7.6505    8.6570    7.9075 C.3       1 <1>        -0.0003 
     30 C30         4.9535    9.8152    7.5715 C.2       1 <1>         0.2184 
     31 O31         3.8481   10.1398    7.9749 O.2       1 <1>        -0.3928 
     32 O32         5.8949   10.7311    7.3012 O.3       1 <1>        -0.2913 
     33 C33         5.4702   12.0895    7.5275 C.3       1 <1>         0.0629 
     34 H1         -4.4731    8.1945    0.3215 H         1 <1>         0.2521 
     35 H2         -1.2663    9.3842    0.9825 H         1 <1>         0.0652 
     36 H3          0.9169    9.7005    2.0441 H         1 <1>         0.0582 
     37 H4         -0.0521    6.6578    4.9378 H         1 <1>         0.0582 
     38 H5         -2.2598    6.3734    3.8889 H         1 <1>         0.0652 
     39 H6          3.1055    9.5669    2.8251 H         1 <1>         0.0379 
     40 H7          5.0523    9.2134    4.7445 H         1 <1>         0.0266 
     41 H8          3.2714    7.5883    7.7603 H         1 <1>         0.0635 
     42 H9          7.6273    6.1712    7.3110 H         1 <1>         0.2157 
     43 H10         3.3178    2.1252    5.6804 H         1 <1>         0.0669 
     44 H11         5.2686    0.5523    5.6620 H         1 <1>         0.0620 
     45 H12         7.5371    1.3693    6.2225 H         1 <1>         0.0645 
     46 H13         7.9184    3.7586    6.8095 H         1 <1>         0.0638 
     47 H14         8.4364    8.0456    8.3753 H         1 <1>         0.0467 
     48 H15         7.3724    9.4118    8.6575 H         1 <1>         0.0467 
     49 H16         8.0785    9.1597    7.0274 H         1 <1>         0.0467 
     50 H17         5.2003   12.2537    8.5831 H         1 <1>         0.0573 
     51 H18         4.6149   12.3515    6.8839 H         1 <1>         0.0573 
     52 H19         6.3103   12.7533    7.2761 H         1 <1>         0.0573 
@<TRIPOS>BOND
     1    2    1 1    
     2    2    3 2    
     3    2    4 1    
     4    4    5 ar   
     5    5    6 ar   
     6    6    7 ar   
     7    7    8 ar   
     8    8    9 ar   
     9    4    9 ar   
    10    7   10 1    
    11   10   11 2    
    12   11   12 1    
    13   12   13 2    
    14   13   14 1    
    15   10   14 1    
    16   13   15 1    
    17   15   16 1    
    18   16   17 2    
    19   17   18 1    
    20   18   19 1    
    21   19   20 2    
    22   15   20 1    
    23   16   21 1    
    24   21   22 1    
    25   22   23 ar   
    26   17   23 1    
    27   21   24 2    
    28   22   25 ar   
    29   25   26 ar   
    30   26   27 ar   
    31   27   28 ar   
    32   23   28 ar   
    33   19   29 1    
    34   20   30 1    
    35   30   31 2    
    36   30   32 1    
    37   32   33 1    
    38    1   34 1    
    39    5   35 1    
    40    6   36 1    
    41    8   37 1    
    42    9   38 1    
    43   11   39 1    
    44   12   40 1    
    45   15   41 1    
    46   18   42 1    
    47   25   43 1    
    48   26   44 1    
    49   27   45 1    
    50   28   46 1    
    51   29   47 1    
    52   29   48 1    
    53   29   49 1    
    54   33   50 1    
    55   33   51 1    
    56   33   52 1    
@<TRIPOS>SUBSTRUCTURE
     1 ****        2 TEMP              0 ****  ****    0 ROOT 
@<TRIPOS>NORMAL
@<TRIPOS>FF_PBC
FORCE_FIELD_SETUP_FEATURE Force Field Setup information
v1.0  0 0.000000 0.000000 0.000000 0.000000 0.000000 0.000000 NONE 0 0 0 0 1 0 0 0 0 0 0 0 0
