#	Name:			PISM01076
#	Creating user name:	Qinrunwen
#	Creation time:		Sun Mar 31 17:58:09 2019

#	Modifying user name:	Qinrunwen
#	Modification time:	Sun Mar 31 18:02:18 2019

@<TRIPOS>MOLECULE
PISM01076
   49    51     1     1     0
SMALL
GAST_HUCK


@<TRIPOS>ATOM
      1 C1         -0.9826    9.2133    5.8662 C.ar      1 <1>         0.1541 
      2 N2         -1.7599   10.0545    6.5859 N.ar      1 <1>        -0.2645 
      3 C3         -2.9359   10.4486    6.0635 C.ar      1 <1>         0.1424 
      4 C4         -3.2932   10.0210    4.7943 C.ar      1 <1>         0.0919 
      5 C5         -2.4709    9.2013    4.0263 C.ar      1 <1>         0.1222 
      6 N6         -1.3141    8.8205    4.6117 N.ar      1 <1>        -0.2560 
      7 N7         -3.9559   11.2267    6.5097 N.pl3     1 <1>        -0.2248 
      8 C8         -4.8616   11.2412    5.5644 C.2       1 <1>         0.1048 
      9 N9         -4.4993   10.5553    4.5625 N.2       1 <1>        -0.3043 
     10 C10        -4.0546   11.9016    7.8020 C.3       1 <1>         0.0648 
     11 H1         -5.8161   11.7664    5.6069 H         1 <1>         0.1309 
     12 C12        -3.9995   13.4340    7.5713 C.3       1 <1>        -0.0349 
     13 N13         0.1569    8.7520    6.4264 N.pl3     1 <1>        -0.2975 
     14 C14         0.9968    7.7901    5.7184 C.3       1 <1>         0.0316 
     15 C15         2.1970    7.3194    6.5823 C.3       1 <1>        -0.0093 
     16 C16         3.0695    6.2797    5.8306 C.3       1 <1>         0.0461 
     17 O17         4.2135    5.9072    6.6176 O.3       1 <1>        -0.3949 
     18 C18        -2.9463   11.4686    8.7986 C.3       1 <1>        -0.0349 
     19 N19        -2.8081    8.8116    2.7758 N.pl3     1 <1>        -0.2919 
     20 C20        -1.9137    7.9569    2.0038 C.3       1 <1>         0.0632 
     21 C21        -2.5405    7.6057    0.6467 C.ar      1 <1>        -0.0206 
     22 C22        -2.0212    8.1140   -0.5501 C.ar      1 <1>        -0.0584 
     23 C23        -2.6104    7.7787   -1.7730 C.ar      1 <1>        -0.0685 
     24 C24        -3.7246    6.9357   -1.8060 C.ar      1 <1>        -0.0687 
     25 C25        -4.2480    6.4274   -0.6141 C.ar      1 <1>        -0.0685 
     26 C26        -3.6561    6.7621    0.6072 C.ar      1 <1>        -0.0584 
     27 H2         -5.0307   11.6372    8.2456 H         1 <1>         0.0642 
     28 H3         -4.8274   13.7582    6.9228 H         1 <1>         0.0259 
     29 H4         -3.0494   13.7016    7.0850 H         1 <1>         0.0259 
     30 H5         -4.0753   13.9739    8.5277 H         1 <1>         0.0259 
     31 H6          0.4122    9.0758    7.3710 H         1 <1>         0.1845 
     32 H7          1.3671    8.2631    4.7942 H         1 <1>         0.0523 
     33 H8          0.3810    6.9181    5.4418 H         1 <1>         0.0523 
     34 H9          1.8166    6.8707    7.5146 H         1 <1>         0.0307 
     35 H10         2.8215    8.1890    6.8447 H         1 <1>         0.0307 
     36 H11         3.4466    6.7194    4.8936 H         1 <1>         0.0558 
     37 H12         2.4741    5.3866    5.5751 H         1 <1>         0.0558 
     38 H13         3.9809    5.4921    7.4429 H         1 <1>         0.2094 
     39 H14        -2.9600   10.3757    8.9305 H         1 <1>         0.0259 
     40 H15        -3.1088   11.9393    9.7806 H         1 <1>         0.0259 
     41 H16        -1.9543   11.7730    8.4319 H         1 <1>         0.0259 
     42 H17        -3.7047    9.1285    2.3719 H         1 <1>         0.1883 
     43 H18        -1.7254    7.0227    2.5574 H         1 <1>         0.0689 
     44 H19        -0.9500    8.4738    1.8730 H         1 <1>         0.0689 
     45 H20        -1.1585    8.7727   -0.5390 H         1 <1>         0.0557 
     46 H21        -2.2026    8.1737   -2.6985 H         1 <1>         0.0599 
     47 H22        -4.1827    6.6764   -2.7555 H         1 <1>         0.0559 
     48 H23        -5.1140    5.7734   -0.6369 H         1 <1>         0.0599 
     49 H24        -4.0672    6.3646    1.5301 H         1 <1>         0.0557 
@<TRIPOS>BOND
     1    1    2 ar   
     2    2    3 ar   
     3    3    4 ar   
     4    4    5 ar   
     5    5    6 ar   
     6    1    6 ar   
     7    3    7 1    
     8    7    8 1    
     9    8    9 2    
    10    4    9 1    
    11    7   10 1    
    12    8   11 1    
    13   10   12 1    
    14    1   13 1    
    15   13   14 1    
    16   14   15 1    
    17   15   16 1    
    18   16   17 1    
    19   10   18 1    
    20    5   19 1    
    21   19   20 1    
    22   20   21 1    
    23   21   22 ar   
    24   22   23 ar   
    25   23   24 ar   
    26   24   25 ar   
    27   25   26 ar   
    28   21   26 ar   
    29   10   27 1    
    30   12   28 1    
    31   12   29 1    
    32   12   30 1    
    33   13   31 1    
    34   14   32 1    
    35   14   33 1    
    36   15   34 1    
    37   15   35 1    
    38   16   36 1    
    39   16   37 1    
    40   17   38 1    
    41   18   39 1    
    42   18   40 1    
    43   18   41 1    
    44   19   42 1    
    45   20   43 1    
    46   20   44 1    
    47   22   45 1    
    48   23   46 1    
    49   24   47 1    
    50   25   48 1    
    51   26   49 1    
@<TRIPOS>SUBSTRUCTURE
     1 ****        1 TEMP              0 ****  ****    0 ROOT 
@<TRIPOS>NORMAL
@<TRIPOS>FF_PBC
FORCE_FIELD_SETUP_FEATURE Force Field Setup information
v1.0  0 0.000000 0.000000 0.000000 0.000000 0.000000 0.000000 NONE 0 0 0 0 1 0 0 0 0 0 0 0 0
