#	Name:			PISM00898.1
#	Creating user name:	baoopengkun
#	Creation time:		Fri Dec 14 10:03:55 2018

#	Modifying user name:	baoopengkun
#	Modification time:	Fri Dec 14 10:16:12 2018

@<TRIPOS>MOLECULE
PISM00898.1
   34    35     1     1     0
SMALL
GAST_HUCK


@<TRIPOS>ATOM
      1 C1         15.9374   11.9284   -1.7517 C.ar      1 <1>        -0.0584 
      2 C2         16.1239   11.3496   -0.4928 C.ar      1 <1>        -0.0685 
      3 C3         16.6466   10.0578   -0.3864 C.ar      1 <1>        -0.0687 
      4 C4         16.9831    9.3459   -1.5411 C.ar      1 <1>        -0.0685 
      5 C5         16.7958    9.9262   -2.7989 C.ar      1 <1>        -0.0584 
      6 C6         16.2711   11.2182   -2.9110 C.ar      1 <1>        -0.0208 
      7 N7         15.2583   10.9094   -5.1143 N.am      1 <1>        -0.2405 
      8 C8         13.9850   10.6421   -4.7327 C.2       1 <1>         0.3289 
      9 O9         13.2562    9.8870   -5.3557 O.2       1 <1>        -0.3771 
     10 O10        13.5876   11.2782   -3.6226 O.3       1 <1>        -0.2136 
     11 C11        12.2753   10.9091   -3.1696 C.3       1 <1>         0.2419 
     12 C12        11.1904   11.1610   -4.1903 C.2       1 <1>        -0.0022 
     13 C13        10.5106   10.0381   -4.4183 C.2       1 <1>         0.0291 
     14 C14        11.1568    9.0567   -3.5521 C.2       1 <1>         0.2494 
     15 O15        12.1856    9.5073   -2.8433 O.3       1 <1>        -0.2315 
     16 C16         9.3559    9.8118   -5.3549 C.3       1 <1>        -0.0323 
     17 O17        10.7770    7.9004   -3.4771 O.2       1 <1>        -0.3691 
     18 C18        16.0662   11.8254   -4.3049 C.3       1 <1>         0.0691 
     19 C19        15.7609   10.2453   -6.3179 C.3       1 <1>         0.0267 
     20 H1         15.5304   12.9319   -1.8203 H         1 <1>         0.0557 
     21 H2         15.8624   11.9036    0.4036 H         1 <1>         0.0599 
     22 H3         16.7908    9.6079    0.5912 H         1 <1>         0.0559 
     23 H4         17.3894    8.3422   -1.4609 H         1 <1>         0.0599 
     24 H5         17.0588    9.3683   -3.6918 H         1 <1>         0.0557 
     25 H6         12.0561   11.4907   -2.2603 H         1 <1>         0.1194 
     26 H7         11.0006   12.1220   -4.6660 H         1 <1>         0.0704 
     27 H8          9.2459   10.6538   -6.0547 H         1 <1>         0.0347 
     28 H9          8.4294    9.7035   -4.7719 H         1 <1>         0.0347 
     29 H10         9.5277    8.8899   -5.9303 H         1 <1>         0.0347 
     30 H11        15.5672   12.8060   -4.2520 H         1 <1>         0.0685 
     31 H12        17.0654   11.9919   -4.7349 H         1 <1>         0.0685 
     32 H13        15.6715    9.1530   -6.2087 H         1 <1>         0.0487 
     33 H14        16.8172   10.4784   -6.5183 H         1 <1>         0.0487 
     34 H15        15.1690   10.5610   -7.1910 H         1 <1>         0.0487 
@<TRIPOS>BOND
     1    1    2 ar   
     2    2    3 ar   
     3    4    3 ar   
     4    5    4 ar   
     5    6    5 ar   
     6    6    1 ar   
     7    7    8 am   
     8   18    7 1    
     9    8    9 2    
    10    8   10 1    
    11   10   11 1    
    12   11   12 1    
    13   12   13 2    
    14   14   13 1    
    15   15   14 1    
    16   11   15 1    
    17   13   16 1    
    18   14   17 2    
    19    6   18 1    
    20    7   19 1    
    21    1   20 1    
    22    2   21 1    
    23    3   22 1    
    24    4   23 1    
    25    5   24 1    
    26   11   25 1    
    27   12   26 1    
    28   16   27 1    
    29   16   28 1    
    30   16   29 1    
    31   18   30 1    
    32   18   31 1    
    33   19   32 1    
    34   19   33 1    
    35   19   34 1    
@<TRIPOS>SUBSTRUCTURE
     1 ****        2 TEMP              0 ****  ****    0 ROOT 
@<TRIPOS>NORMAL
@<TRIPOS>FF_PBC
FORCE_FIELD_SETUP_FEATURE Force Field Setup information
v1.0  0 0.000000 0.000000 0.000000 0.000000 0.000000 0.000000 NONE 0 0 0 0 1 0 0 0 0 0 0 0 0
