#	Name:			PISM00125
#	Creating user name:	baoopengkun
#	Creation time:		Mon Dec 17 15:16:28 2018

#	Modifying user name:	baoopengkun
#	Modification time:	Mon Dec 17 15:20:25 2018

@<TRIPOS>MOLECULE
PISM00125
   43    46     1     1     0
SMALL
GAST_HUCK


@<TRIPOS>ATOM
      1 C1         26.2991   10.9397    5.3411 C.ar      1 <1>        -0.0672 
      2 C2         25.4090   12.0193    5.3849 C.ar      1 <1>        -0.0743 
      3 C3         24.2168   11.9390    6.1198 C.ar      1 <1>        -0.0725 
      4 C4         23.8757   10.7790    6.8280 C.ar      1 <1>        -0.0392 
      5 C5         24.7536    9.6940    6.7636 C.ar      1 <1>         0.0700 
      6 C6         25.9420    9.7913    6.0464 C.ar      1 <1>        -0.0011 
      7 N7         24.6325    8.4705    7.3341 N.pl3     1 <1>        -0.2575 
      8 C8         25.7494    7.7579    7.0487 C.ar      1 <1>         0.0730 
      9 C9         26.6115    8.4894    6.2388 C.ar      1 <1>         0.0025 
     10 C10        27.8235    7.9765    5.7794 C.ar      1 <1>        -0.0533 
     11 C11        28.1635    6.6740    6.1683 C.ar      1 <1>        -0.0114 
     12 C12        27.3061    5.9368    7.0008 C.ar      1 <1>        -0.0593 
     13 C13        26.0945    6.4689    7.4615 C.ar      1 <1>        -0.0351 
     14 C14        29.4614    6.0611    5.6888 C.2       1 <1>         0.0436 
     15 N15        30.2536    6.7397    4.9603 N.2       1 <1>        -0.1598 
     16 N16        31.4326    6.2363    4.5283 N.pl3     1 <1>        -0.1098 
     17 C17        31.8226    6.1278    3.3007 C.2       1 <1>         0.1557 
     18 C18        30.9621    6.5703    2.1523 C.3       1 <1>         0.0173 
     19 N19        32.9780    5.6200    3.1427 N.2       1 <1>        -0.2810 
     20 N20        33.4117    5.3601    4.4768 N.2       1 <1>        -0.2810 
     21 C21        32.4400    5.7648    5.1912 C.2       1 <1>         0.1557 
     22 C22        32.4813    5.6831    6.6914 C.3       1 <1>         0.0173 
     23 C23        23.4469    7.9621    8.0209 C.3       1 <1>         0.0459 
     24 C24        23.5864    8.2606    9.5324 C.3       1 <1>        -0.0400 
     25 H1         27.2282   10.9895    4.7837 H         1 <1>         0.0579 
     26 H2         25.6463   12.9300    4.8433 H         1 <1>         0.0520 
     27 H3         23.5456   12.7923    6.1412 H         1 <1>         0.0572 
     28 H4         22.9606   10.7406    7.4068 H         1 <1>         0.0542 
     29 H5         28.4701    8.5728    5.1453 H         1 <1>         0.0619 
     30 H6         27.5825    4.9307    7.2999 H         1 <1>         0.0602 
     31 H7         25.4577    5.8907    8.1204 H         1 <1>         0.0554 
     32 H8         29.7103    5.0369    5.9662 H         1 <1>         0.0909 
     33 H9         31.4853    6.4085    1.1982 H         1 <1>         0.0467 
     34 H10        30.7296    7.6399    2.2597 H         1 <1>         0.0467 
     35 H11        30.0258    5.9935    2.1536 H         1 <1>         0.0467 
     36 H12        31.8966    6.5000    7.1391 H         1 <1>         0.0467 
     37 H13        33.5229    5.7641    7.0357 H         1 <1>         0.0467 
     38 H14        32.0716    4.7168    7.0183 H         1 <1>         0.0467 
     39 H15        23.3320    6.8794    7.8582 H         1 <1>         0.0579 
     40 H16        22.5326    8.4308    7.6253 H         1 <1>         0.0579 
     41 H17        22.7070    7.8900   10.0819 H         1 <1>         0.0254 
     42 H18        23.6761    9.3459    9.6939 H         1 <1>         0.0254 
     43 H19        24.4881    7.7699    9.9304 H         1 <1>         0.0254 
@<TRIPOS>BOND
     1    2    1 ar   
     2    2    3 ar   
     3    3    4 ar   
     4    4    5 ar   
     5    5    6 ar   
     6    1    6 ar   
     7    5    7 1    
     8    7    8 1    
     9    8    9 ar   
    10    6    9 1    
    11    9   10 ar   
    12   10   11 ar   
    13   11   12 ar   
    14   12   13 ar   
    15    8   13 ar   
    16   11   14 1    
    17   14   15 2    
    18   15   16 1    
    19   16   17 1    
    20   17   18 1    
    21   17   19 2    
    22   19   20 1    
    23   20   21 2    
    24   16   21 1    
    25   21   22 1    
    26    7   23 1    
    27   23   24 1    
    28    1   25 1    
    29    2   26 1    
    30    3   27 1    
    31    4   28 1    
    32   10   29 1    
    33   12   30 1    
    34   13   31 1    
    35   14   32 1    
    36   18   33 1    
    37   18   34 1    
    38   18   35 1    
    39   22   36 1    
    40   22   37 1    
    41   22   38 1    
    42   23   39 1    
    43   23   40 1    
    44   24   41 1    
    45   24   42 1    
    46   24   43 1    
@<TRIPOS>SUBSTRUCTURE
     1 ****        2 TEMP              0 ****  ****    0 ROOT 
@<TRIPOS>NORMAL
@<TRIPOS>FF_PBC
FORCE_FIELD_SETUP_FEATURE Force Field Setup information
v1.0  0 0.000000 0.000000 0.000000 0.000000 0.000000 0.000000 NONE 0 0 0 0 1 0 0 0 0 0 0 0 0
