#	Name:			PISM00827
#	Creating user name:	baoopengkun
#	Creation time:		Sat Dec 15 02:41:55 2018

#	Modifying user name:	baoopengkun
#	Modification time:	Sat Dec 15 02:49:23 2018

@<TRIPOS>MOLECULE
PISM00827
   37    40     1     1     0
SMALL
GAST_HUCK


@<TRIPOS>ATOM
      1 C1          0.0356   21.7785  -43.2713 C.ar      1 <1>        -0.0667 
      2 C2         -0.6817   21.1272  -44.2811 C.ar      1 <1>        -0.0756 
      3 C3         -0.4624   21.4434  -45.6284 C.ar      1 <1>        -0.0755 
      4 C4          0.4827   22.4104  -45.9892 C.ar      1 <1>        -0.0655 
      5 C5          1.2142   23.0352  -44.9772 C.ar      1 <1>        -0.0295 
      6 C6          0.9786   22.7385  -43.6414 C.ar      1 <1>        -0.0366 
      7 C7          1.8543   23.5819  -42.7280 C.3       1 <1>         0.0122 
      8 C8          2.3383   24.7068  -43.6894 C.3       1 <1>         0.1095 
      9 C9          2.3064   24.0884  -45.1177 C.3       1 <1>         0.0504 
     10 O10         3.6976   25.0605  -43.4066 O.3       1 <1>        -0.2748 
     11 C11         4.4392   24.2959  -44.1961 C.2       1 <1>         0.2375 
     12 C12         3.7074   23.5400  -45.2307 C.2       1 <1>         0.0631 
     13 O13         5.6423   24.3041  -44.0153 O.2       1 <1>        -0.3779 
     14 C14         3.9441   22.5814  -46.1490 C.2       1 <1>         0.0804 
     15 C15         6.3347   22.3967  -45.8233 C.3       1 <1>         0.1955 
     16 C16         6.7993   23.7081  -46.4226 C.2       1 <1>        -0.0111 
     17 C17         7.9147   23.5692  -47.1439 C.2       1 <1>         0.0164 
     18 C18         8.2749   22.1533  -47.0969 C.2       1 <1>         0.1911 
     19 N19         7.3606   21.5157  -46.3582 N.am      1 <1>        -0.2479 
     20 C20         8.6620   24.6576  -47.8657 C.3       1 <1>        -0.0334 
     21 O21         9.2408   21.6531  -47.6461 O.2       1 <1>        -0.3960 
     22 O22         5.1085   21.9526  -46.4124 O.3       1 <1>        -0.2789 
     23 H1         -0.1342   21.5460  -42.2252 H         1 <1>         0.0537 
     24 H2         -1.4151   20.3713  -44.0172 H         1 <1>         0.0541 
     25 H3         -1.0316   20.9342  -46.4002 H         1 <1>         0.0541 
     26 H4          0.6407   22.6709  -47.0306 H         1 <1>         0.0538 
     27 H5          2.6931   22.9553  -42.3870 H         1 <1>         0.0443 
     28 H6          1.3054   23.9713  -41.8564 H         1 <1>         0.0443 
     29 H7          1.6658   25.5780  -43.6101 H         1 <1>         0.0707 
     30 H8          2.0974   24.8336  -45.9017 H         1 <1>         0.0565 
     31 H9          3.1286   22.2259  -46.7765 H         1 <1>         0.1079 
     32 H10         6.3631   22.2954  -44.7280 H         1 <1>         0.1112 
     33 H11         6.3023   24.6696  -46.3081 H         1 <1>         0.0690 
     34 H12         7.3674   20.5298  -46.1938 H         1 <1>         0.1895 
     35 H13         9.6852   24.3260  -48.0978 H         1 <1>         0.0348 
     36 H14         8.7153   25.5619  -47.2411 H         1 <1>         0.0348 
     37 H15         8.1419   24.8972  -48.8049 H         1 <1>         0.0348 
@<TRIPOS>BOND
     1    1    2 ar   
     2    3    2 ar   
     3    4    3 ar   
     4    5    4 ar   
     5    5    6 ar   
     6    6    1 ar   
     7    6    7 1    
     8    8    7 1    
     9    9    8 1    
    10    9    5 1    
    11    8   10 1    
    12   11   10 1    
    13   12   11 1    
    14   12    9 1    
    15   11   13 2    
    16   14   12 2    
    17   22   14 1    
    18   15   16 1    
    19   16   17 2    
    20   18   17 1    
    21   19   18 am   
    22   15   19 1    
    23   17   20 1    
    24   18   21 2    
    25   15   22 1    
    26    1   23 1    
    27    2   24 1    
    28    3   25 1    
    29    4   26 1    
    30    7   27 1    
    31    7   28 1    
    32    8   29 1    
    33    9   30 1    
    34   14   31 1    
    35   15   32 1    
    36   16   33 1    
    37   19   34 1    
    38   20   35 1    
    39   20   36 1    
    40   20   37 1    
@<TRIPOS>SUBSTRUCTURE
     1 ****       15 TEMP              0 ****  ****    0 ROOT 
@<TRIPOS>NORMAL
@<TRIPOS>FF_PBC
FORCE_FIELD_SETUP_FEATURE Force Field Setup information
v1.0  0 0.000000 0.000000 0.000000 0.000000 0.000000 0.000000 NONE 0 0 0 0 1 0 0 0 0 0 0 0 0
