#	Name:			PISM00352
#	Creating user name:	baoopengkun
#	Creation time:		Sun Mar 31 20:45:36 2019

#	Modifying user name:	baoopengkun
#	Modification time:	Sun Mar 31 20:47:33 2019

@<TRIPOS>MOLECULE
PISM00352
   38    40     1     1     0
SMALL
GAST_HUCK


@<TRIPOS>ATOM
      1 C1          3.2832    9.5448   -8.9685 C.ar      1 <1>        -0.0339 
      2 C2          2.5901    9.9019   -7.8060 C.ar      1 <1>         0.0411 
      3 C3          1.5623    9.0770   -7.3380 C.ar      1 <1>        -0.0372 
      4 C4          1.2121    7.9231   -8.0438 C.ar      1 <1>        -0.0378 
      5 C5          1.8728    7.6033   -9.2331 C.ar      1 <1>        -0.0349 
      6 C6          2.9073    8.4171   -9.7085 C.ar      1 <1>        -0.0006 
      7 C7          2.9347   11.1803   -7.0324 C.3       1 <1>         0.3752 
      8 F8          1.7908   11.8588   -6.7475 F         1 <1>        -0.2203 
      9 F9          3.7549   11.9935   -7.7518 F         1 <1>        -0.2203 
     10 F10         3.5527   10.8443   -5.8691 F         1 <1>        -0.2203 
     11 C11         3.6069    8.0768  -11.0099 C.2       1 <1>         0.0501 
     12 C12         3.9192    9.0170  -11.9130 C.2       1 <1>         0.0748 
     13 N13         4.5267    8.7532  -13.0501 N.pl3     1 <1>        -0.2340 
     14 C14         4.8679    7.5280  -13.3845 C.2       1 <1>         0.0744 
     15 C15         4.6320    6.4567  -12.6156 C.2       1 <1>         0.0435 
     16 C16         3.9651    6.6891  -11.3280 C.2       1 <1>         0.1021 
     17 O17         3.7174    5.7775  -10.5564 O.2       1 <1>        -0.4348 
     18 C18         5.0371    5.0630  -13.0525 C.ar      1 <1>        -0.0300 
     19 C19         5.6311    4.1836  -12.1401 C.ar      1 <1>        -0.0636 
     20 C20         6.0164    2.9005  -12.5399 C.ar      1 <1>        -0.0685 
     21 C21         5.8262    2.4930  -13.8630 C.ar      1 <1>        -0.0682 
     22 C22         5.2325    3.3654  -14.7789 C.ar      1 <1>        -0.0685 
     23 C23         4.8239    4.6384  -14.3697 C.ar      1 <1>        -0.0636 
     24 C24         4.8381    9.8424  -13.9886 C.3       1 <1>         0.0533 
     25 H1          4.1263   10.1452   -9.2922 H         1 <1>         0.0786 
     26 H2          1.0352    9.3329   -6.4235 H         1 <1>         0.0806 
     27 H3          0.4242    7.2761   -7.6694 H         1 <1>         0.0683 
     28 H4          1.5706    6.7206   -9.7876 H         1 <1>         0.0808 
     29 H5          3.6353   10.0403  -11.6642 H         1 <1>         0.1239 
     30 H6          5.3773    7.3544  -14.3342 H         1 <1>         0.1239 
     31 H7          5.8036    4.4946  -11.1151 H         1 <1>         0.0562 
     32 H8          6.4655    2.2205  -11.8225 H         1 <1>         0.0600 
     33 H9          6.1375    1.5016  -14.1777 H         1 <1>         0.0563 
     34 H10         5.0864    3.0526  -15.8083 H         1 <1>         0.0600 
     35 H11         4.3312    5.2892  -15.0844 H         1 <1>         0.0562 
     36 H12         5.9295    9.9027  -14.1256 H         1 <1>         0.0590 
     37 H13         4.4893   10.8359  -13.6659 H         1 <1>         0.0590 
     38 H14         4.3727    9.6327  -14.9650 H         1 <1>         0.0590 
@<TRIPOS>BOND
     1    2    1 ar   
     2    2    3 ar   
     3    3    4 ar   
     4    4    5 ar   
     5    5    6 ar   
     6    1    6 ar   
     7    2    7 1    
     8    7    8 1    
     9    7    9 1    
    10    7   10 1    
    11    6   11 1    
    12   11   12 2    
    13   12   13 1    
    14   13   14 1    
    15   14   15 2    
    16   15   16 1    
    17   11   16 1    
    18   16   17 2    
    19   15   18 1    
    20   18   19 ar   
    21   19   20 ar   
    22   20   21 ar   
    23   21   22 ar   
    24   22   23 ar   
    25   18   23 ar   
    26   13   24 1    
    27    1   25 1    
    28    3   26 1    
    29    4   27 1    
    30    5   28 1    
    31   12   29 1    
    32   14   30 1    
    33   19   31 1    
    34   20   32 1    
    35   21   33 1    
    36   22   34 1    
    37   23   35 1    
    38   24   36 1    
    39   24   37 1    
    40   24   38 1    
@<TRIPOS>SUBSTRUCTURE
     1 ****        2 TEMP              0 ****  ****    0 ROOT 
@<TRIPOS>NORMAL
@<TRIPOS>FF_PBC
FORCE_FIELD_SETUP_FEATURE Force Field Setup information
v1.0  0 0.000000 0.000000 0.000000 0.000000 0.000000 0.000000 NONE 0 0 0 0 1 0 0 0 0 0 0 0 0
