#	Name:			PISM00641
#	Creating user name:	baoopengkun
#	Creation time:		Mon Dec 10 10:46:41 2018

#	Modifying user name:	baoopengkun
#	Modification time:	Mon Dec 10 10:47:00 2018

@<TRIPOS>MOLECULE
PISM00641
   24    24     1     2     0
SMALL
GAST_HUCK


@<TRIPOS>ATOM
      1 C1         -0.5432    5.7844   -6.1017 C.ar      1 <1>        -0.0107 
      2 C2         -0.0120    5.6786   -4.8134 C.ar      1 <1>        -0.0472 
      3 C3         -0.4353    4.6409   -3.9790 C.ar      1 <1>         0.0235 
      4 C4         -1.3893    3.7341   -4.4493 C.ar      1 <1>         0.0028 
      5 N5         -1.8822    3.8503   -5.6999 N.ar      1 <1>        -0.2815 
      6 C6         -1.4516    4.8135   -6.5400 C.ar      1 <1>         0.1420 
      7 N7         -1.9773    4.7920   -7.8587 N.am      1 <1>        -0.2162 
      8 C8         -1.2734    5.2038   -8.9383 C.2       1 <1>         0.2111 
      9 O9         -0.1257    5.6087   -8.8763 O.2       1 <1>        -0.3822 
     10 C10        -1.9190    5.1368  -10.3009 C.3       1 <1>         0.0623 
     11 C11        -1.8616    3.6839  -10.8375 C.3       1 <1>         0.0659 
     12 C12        -2.5062    3.5706  -12.1923 C.2       1 <1>         0.2335 
     13 O13        -2.4600    2.3637  -12.7550 O.3       1 <1>        -0.2926 
     14 O14        -3.0389    4.5236  -12.7375 O.2       1 <1>        -0.3704 
     15 Br15        0.2581    4.4708   -2.2695 Br        1 <1>        -0.0544 
     16 H1         -0.2546    6.6177   -6.7312 H         1 <1>         0.0603 
     17 H2          0.7211    6.3976   -4.4622 H         1 <1>         0.0715 
     18 H3         -1.7394    2.9300   -3.8112 H         1 <1>         0.0803 
     19 H4         -2.8917    4.4064   -7.9699 H         1 <1>         0.2323 
     20 H5         -1.3865    5.8084  -10.9941 H         1 <1>         0.0535 
     21 H6         -2.9631    5.4808  -10.2327 H         1 <1>         0.0535 
     22 H7         -2.3855    3.0006  -10.1516 H         1 <1>         0.0543 
     23 H8         -0.8119    3.3608  -10.9209 H         1 <1>         0.0543 
     24 H9         -2.8846    2.3679  -13.6062 H         1 <1>         0.2539 
@<TRIPOS>BOND
     1    2    1 ar   
     2    2    3 ar   
     3    3    4 ar   
     4    4    5 ar   
     5    5    6 ar   
     6    1    6 ar   
     7    6    7 1    
     8    7    8 am   
     9    8    9 2    
    10    8   10 1    
    11   10   11 1    
    12   11   12 1    
    13   12   13 1    
    14   12   14 2    
    15    3   15 1    
    16    1   16 1    
    17    2   17 1    
    18    4   18 1    
    19    7   19 1    
    20   10   20 1    
    21   10   21 1    
    22   11   22 1    
    23   11   23 1    
    24   13   24 1    
@<TRIPOS>SUBSTRUCTURE
     1 ****        2 TEMP              0 ****  ****    0 ROOT 
@<TRIPOS>NORMAL
@<TRIPOS>FF_PBC
FORCE_FIELD_SETUP_FEATURE Force Field Setup information
v1.0  0 0.000000 0.000000 0.000000 0.000000 0.000000 0.000000 NONE 0 0 0 0 1 0 0 0 0 0 0 0 0
@<TRIPOS>RENDERING_ATTRS
ANTIALIASED_LINES 
*
