#	Name:			PISM00055
#	Creating user name:	baoopengkun
#	Creation time:		Thu Dec 27 12:28:25 2018

#	Modifying user name:	baoopengkun
#	Modification time:	Thu Dec 27 12:29:54 2018

@<TRIPOS>MOLECULE
PISM00055
   37    38     1     1     0
SMALL
GAST_HUCK


@<TRIPOS>ATOM
      1 Cl1         7.5560   -2.2101  -20.3650 Cl        1 <1>        -0.0646 
      2 C2          6.0949   -2.8178  -21.1201 C.ar      1 <1>         0.0616 
      3 C3          6.1111   -3.0994  -22.4892 C.ar      1 <1>        -0.0282 
      4 C4          4.9526   -3.5437  -23.1305 C.ar      1 <1>         0.0456 
      5 C5          3.7791   -3.7243  -22.3948 C.ar      1 <1>        -0.0421 
      6 C6          3.7704   -3.4725  -21.0198 C.ar      1 <1>        -0.0406 
      7 C7          4.9246   -3.0108  -20.3751 C.ar      1 <1>         0.0691 
      8 Cl8         4.9717   -3.8731  -24.8508 Cl        1 <1>        -0.0665 
      9 C9          4.9070   -2.7284  -18.8865 C.2       1 <1>         0.2293 
     10 O10         5.8816   -3.0654  -18.2360 O.2       1 <1>        -0.3669 
     11 N11         3.8892   -2.1328  -18.3242 N.pl3     1 <1>        -0.2422 
     12 C12         3.8579   -1.8931  -16.9904 C.ar      1 <1>         0.0644 
     13 C13         4.0586   -2.9336  -16.0769 C.ar      1 <1>        -0.0119 
     14 C14         3.9422   -2.7267  -14.6995 C.ar      1 <1>         0.1165 
     15 C15         3.5539   -1.4600  -14.2347 C.ar      1 <1>         0.1136 
     16 C16         3.4162   -0.4043  -15.1407 C.ar      1 <1>        -0.0296 
     17 C17         3.6012   -0.6039  -16.5117 C.ar      1 <1>         0.0634 
     18 C18         3.5193    0.5795  -17.4539 C.2       1 <1>         0.2425 
     19 O19         4.3105    0.7243  -18.5196 O.3       1 <1>        -0.2971 
     20 O20         2.6977    1.4518  -17.2320 O.2       1 <1>        -0.3698 
     21 O21         3.3003   -1.2269  -12.8818 O.3       1 <1>        -0.3311 
     22 C22         1.9069   -1.0867  -12.5556 C.3       1 <1>         0.0545 
     23 O23         4.2203   -3.8063  -13.8454 O.3       1 <1>        -0.3236 
     24 C24         4.4164   -3.6497  -12.4308 C.3       1 <1>         0.0581 
     25 H1          7.0259   -2.9696  -23.0575 H         1 <1>         0.0641 
     26 H2          2.8767   -4.0635  -22.8937 H         1 <1>         0.0636 
     27 H3          2.8595   -3.6495  -20.4570 H         1 <1>         0.0670 
     28 H4          3.1015   -1.8063  -18.9037 H         1 <1>         0.2094 
     29 H5          4.3017   -3.9285  -16.4337 H         1 <1>         0.0439 
     30 H6          3.1692    0.5850  -14.7703 H         1 <1>         0.0530 
     31 H7          5.0069    0.0812  -18.5610 H         1 <1>         0.2517 
     32 H8          1.8228   -0.9365  -11.4692 H         1 <1>         0.0568 
     33 H9          1.3511   -1.9971  -12.8300 H         1 <1>         0.0568 
     34 H10         1.4566   -0.2206  -13.0642 H         1 <1>         0.0568 
     35 H11         3.4733   -3.4194  -11.9150 H         1 <1>         0.0576 
     36 H12         5.1688   -2.8748  -12.2178 H         1 <1>         0.0576 
     37 H13         4.7849   -4.6098  -12.0409 H         1 <1>         0.0576 
@<TRIPOS>BOND
     1    2    1 1    
     2    2    3 ar   
     3    3    4 ar   
     4    4    5 ar   
     5    5    6 ar   
     6    6    7 ar   
     7    2    7 ar   
     8    4    8 1    
     9    7    9 1    
    10    9   10 2    
    11    9   11 1    
    12   11   12 1    
    13   12   13 ar   
    14   13   14 ar   
    15   14   15 ar   
    16   15   16 ar   
    17   16   17 ar   
    18   12   17 ar   
    19   17   18 1    
    20   18   19 1    
    21   18   20 2    
    22   15   21 1    
    23   21   22 1    
    24   14   23 1    
    25   23   24 1    
    26    3   25 1    
    27    5   26 1    
    28    6   27 1    
    29   11   28 1    
    30   13   29 1    
    31   16   30 1    
    32   19   31 1    
    33   22   32 1    
    34   22   33 1    
    35   22   34 1    
    36   24   35 1    
    37   24   36 1    
    38   24   37 1    
@<TRIPOS>SUBSTRUCTURE
     1 ****        2 TEMP              0 ****  ****    0 ROOT 
@<TRIPOS>NORMAL
@<TRIPOS>FF_PBC
FORCE_FIELD_SETUP_FEATURE Force Field Setup information
v1.0  0 0.000000 0.000000 0.000000 0.000000 0.000000 0.000000 NONE 0 0 0 0 1 0 0 0 0 0 0 0 0
