#	Name:			PISM00908
#	Creating user name:	baoopengkun
#	Creation time:		Fri Dec 14 10:31:16 2018

#	Modifying user name:	baoopengkun
#	Modification time:	Fri Dec 14 10:37:32 2018

@<TRIPOS>MOLECULE
PISM00908
   29    31     1     1     0
SMALL
GAST_HUCK


@<TRIPOS>ATOM
      1 C1         19.5259   12.4007   -8.1055 C.ar      1 <1>        -0.0486 
      2 C2         18.4832   13.1074   -7.4914 C.ar      1 <1>        -0.0270 
      3 C3         18.1894   14.4453   -7.8210 C.ar      1 <1>         0.1415 
      4 C4         18.9617   15.0964   -8.7986 C.ar      1 <1>        -0.0116 
      5 C5         19.9976   14.3869   -9.4045 C.ar      1 <1>         0.0625 
      6 C6         20.2761   13.0716   -9.0685 C.ar      1 <1>         0.0597 
      7 C7         21.4475   12.6675   -9.9289 C.2       1 <1>         0.2347 
      8 N8         21.8121   13.7039  -10.7089 N.am      1 <1>        -0.1420 
      9 C9         21.0059   14.7545  -10.4646 C.2       1 <1>         0.2415 
     10 O10        21.9668   11.5652   -9.8985 O.2       1 <1>        -0.3731 
     11 O11        21.0638   15.8461  -11.0035 O.2       1 <1>        -0.3668 
     12 C12        22.8766   13.6767  -11.6964 C.3       1 <1>         0.2213 
     13 O13        22.4360   12.8916  -12.8221 O.3       1 <1>        -0.2348 
     14 C14        23.2607   11.8523  -12.8669 C.2       1 <1>         0.2491 
     15 C15        24.3048   11.8347  -11.8488 C.2       1 <1>         0.0288 
     16 C16        24.0807   12.9465  -11.1507 C.2       1 <1>        -0.0059 
     17 C17        25.3835   10.8050  -11.6544 C.3       1 <1>        -0.0323 
     18 O18        23.1528   10.9792  -13.7110 O.2       1 <1>        -0.3691 
     19 N19        17.1711   15.1033   -7.2026 N.pl3     1 <1>         0.1256 
     20 O20        16.5259   14.5099   -6.3657 O.2       1 <1>        -0.1116 
     21 O21        16.9576   16.2539   -7.5181 O.2       1 <1>        -0.1116 
     22 H1         19.7484   11.3699   -7.8482 H         1 <1>         0.0648 
     23 H2         17.8974   12.5861   -6.7410 H         1 <1>         0.0563 
     24 H3         18.7802   16.1240   -9.0949 H         1 <1>         0.0586 
     25 H4         23.1562   14.6890  -12.0331 H         1 <1>         0.1152 
     26 H5         24.6717   13.2819  -10.2995 H         1 <1>         0.0702 
     27 H6         24.9763    9.9607  -11.0787 H         1 <1>         0.0347 
     28 H7         26.2392   11.2332  -11.1110 H         1 <1>         0.0347 
     29 H8         25.7286   10.4389  -12.6330 H         1 <1>         0.0347 
@<TRIPOS>BOND
     1    2    1 ar   
     2    2    3 ar   
     3    3    4 ar   
     4    4    5 ar   
     5    5    6 ar   
     6    1    6 ar   
     7    6    7 1    
     8    7    8 am   
     9    8    9 am   
    10    5    9 1    
    11    7   10 2    
    12    9   11 2    
    13    8   12 1    
    14   12   13 1    
    15   13   14 1    
    16   14   15 1    
    17   15   16 2    
    18   12   16 1    
    19   15   17 1    
    20   14   18 2    
    21    3   19 1    
    22   19   20 2    
    23   19   21 2    
    24    1   22 1    
    25    2   23 1    
    26    4   24 1    
    27   12   25 1    
    28   16   26 1    
    29   17   27 1    
    30   17   28 1    
    31   17   29 1    
@<TRIPOS>SUBSTRUCTURE
     1 ****        2 TEMP              0 ****  ****    0 ROOT 
@<TRIPOS>NORMAL
@<TRIPOS>FF_PBC
FORCE_FIELD_SETUP_FEATURE Force Field Setup information
v1.0  0 0.000000 0.000000 0.000000 0.000000 0.000000 0.000000 NONE 0 0 0 0 1 0 0 0 0 0 0 0 0
