#	Name:			PISM00351
#	Creating user name:	baoopengkun
#	Creation time:		Sun Dec 16 03:29:03 2018

#	Modifying user name:	baoopengkun
#	Modification time:	Sun Dec 16 03:31:17 2018

@<TRIPOS>MOLECULE
PISM00351
   35    37     1     1     0
SMALL
GAST_HUCK


@<TRIPOS>ATOM
      1 C1        -20.2855    9.8141   45.4030 C.ar      1 <1>        -0.0538 
      2 C2        -21.2482    9.6874   44.3990 C.ar      1 <1>        -0.0607 
      3 C3        -21.3980   10.7013   43.4534 C.ar      1 <1>        -0.0605 
      4 C4        -20.6042   11.8463   43.5385 C.ar      1 <1>        -0.0511 
      5 C5        -19.7060   12.0244   44.5992 C.ar      1 <1>         0.0112 
      6 C6        -19.4888   10.9652   45.4970 C.ar      1 <1>        -0.0084 
      7 C7        -18.4813   11.0787   46.4681 C.ar      1 <1>         0.0197 
      8 C8        -17.7260   12.2500   46.5572 C.ar      1 <1>        -0.0494 
      9 C9        -18.0001   13.3281   45.7154 C.ar      1 <1>        -0.0306 
     10 C10       -19.0276   13.2408   44.7730 C.ar      1 <1>         0.1195 
     11 Br11      -18.0949    9.7109   47.6638 Br        1 <1>        -0.0495 
     12 S12       -19.4146   14.7120   43.8330 S.o2      1 <1>         0.0721 
     13 O13       -19.1540   14.4596   42.4291 O.2       1 <1>        -0.1496 
     14 O14       -18.7943   15.8581   44.4682 O.2       1 <1>        -0.1496 
     15 N15       -21.0302   14.8182   44.1081 N.am      1 <1>        -0.2373 
     16 C16       -22.0314   15.0422   43.0704 C.3       1 <1>         0.0421 
     17 C17       -23.0184   13.8696   43.0388 C.ar      1 <1>        -0.1269 
     18 C18       -23.4862   13.3434   41.8285 C.ar      1 <1>        -0.1737 
     19 C19       -24.3575   12.2491   41.8276 C.ar      1 <1>        -0.1826 
     20 C20       -24.7674   11.6779   43.0367 C.ar      1 <1>        -0.1687 
     21 C21       -24.3129   12.2082   44.2477 C.ar      1 <1>        -0.1858 
     22 C22       -23.4533   13.3092   44.2441 C.ar      1 <1>        -0.1849 
     23 H1        -20.1812    8.9938   46.1033 H         1 <1>         0.0620 
     24 H2        -21.8784    8.8044   44.3501 H         1 <1>         0.0624 
     25 H3        -22.1287   10.6023   42.6561 H         1 <1>         0.0618 
     26 H4        -20.7055   12.5857   42.7559 H         1 <1>         0.0630 
     27 H5        -16.9244   12.3255   47.2855 H         1 <1>         0.0655 
     28 H6        -17.4121   14.2356   45.7999 H         1 <1>         0.0646 
     29 H7        -21.3643   14.7440   45.0492 H         1 <1>         0.1699 
     30 H8        -21.5507   15.1651   42.0885 H         1 <1>         0.0623 
     31 H9        -22.6018   15.9581   43.2878 H         1 <1>         0.0623 
     32 H10       -23.1753   13.7796   40.8845 H         1 <1>        -0.0189 
     33 H11       -24.7156   11.8414   40.8872 H         1 <1>        -0.0146 
     34 H12       -25.4369   10.8238   43.0353 H         1 <1>         0.0333 
     35 H13       -24.6219   11.7716   45.1913 H         1 <1>        -0.0149 
@<TRIPOS>BOND
     1    2    1 ar   
     2    2    3 ar   
     3    3    4 ar   
     4    4    5 ar   
     5    5    6 ar   
     6    1    6 ar   
     7    6    7 ar   
     8    7    8 ar   
     9    8    9 ar   
    10    9   10 ar   
    11    5   10 ar   
    12    7   11 1    
    13   10   12 1    
    14   12   13 2    
    15   12   14 2    
    16   12   15 1    
    17   15   16 1    
    18   16   17 1    
    19   17   18 ar   
    20   18   19 ar   
    21   19   20 ar   
    22   20   21 ar   
    23   21   22 ar   
    24   17   22 ar   
    25    1   23 1    
    26    2   24 1    
    27    3   25 1    
    28    4   26 1    
    29    8   27 1    
    30    9   28 1    
    31   15   29 1    
    32   16   30 1    
    33   16   31 1    
    34   18   32 1    
    35   19   33 1    
    36   20   34 1    
    37   21   35 1    
@<TRIPOS>SUBSTRUCTURE
     1 ****        2 TEMP              0 ****  ****    0 ROOT 
@<TRIPOS>NORMAL
@<TRIPOS>FF_PBC
FORCE_FIELD_SETUP_FEATURE Force Field Setup information
v1.0  0 0.000000 0.000000 0.000000 0.000000 0.000000 0.000000 NONE 0 0 0 0 1 0 0 0 0 0 0 0 0
