#	Name:			PISM00556
#	Creating user name:	baoopengkun
#	Creation time:		Sat Dec 15 14:51:35 2018

#	Modifying user name:	baoopengkun
#	Modification time:	Sat Dec 15 15:04:14 2018

@<TRIPOS>MOLECULE
PISM00556
   41    42     1     1     0
SMALL
GAST_HUCK


@<TRIPOS>ATOM
      1 C1          5.3366   10.0262   21.3139 C.3       1 <1>        -0.0559 
      2 C2          6.7142   11.6761   19.9704 C.3       1 <1>        -0.0559 
      3 C3          1.8525    5.7555   15.9905 C.3       1 <1>        -0.0341 
      4 H4         -0.4144    4.2325   16.1605 H         1 <1>         0.0469 
      5 H1          6.2419    9.4484   21.5550 H         1 <1>         0.0238 
      6 H2          4.4790    9.3380   21.3363 H         1 <1>         0.0238 
      7 C7          4.2048   11.5380   19.5936 C.3       1 <1>         0.0215 
      8 C8          5.4862   10.7196   19.9260 C.3       1 <1>        -0.0065 
      9 C9          5.7025    9.6527   18.8142 C.3       1 <1>         0.0215 
     10 C10         4.4937    8.7729   18.6472 C.2       1 <1>         0.1085 
     11 C11         3.1349    9.2552   18.9620 C.2       1 <1>         0.0848 
     12 C12         3.0001   10.6525   19.4188 C.2       1 <1>         0.1085 
     13 O13         1.8950   11.1083   19.6639 O.2       1 <1>        -0.4053 
     14 O14         4.6350    7.6292   18.2406 O.2       1 <1>        -0.4053 
     15 C15         2.0621    8.4567   18.8367 C.2       1 <1>         0.0665 
     16 N16         2.1471    7.2104   18.4394 N.pl3     1 <1>        -0.2602 
     17 C17         1.0502    6.4226   18.3169 C.ar      1 <1>         0.0679 
     18 C18         0.1150    6.3474   19.3555 C.ar      1 <1>        -0.0481 
     19 C19        -1.0260    5.5513   19.2268 C.ar      1 <1>        -0.0753 
     20 C20        -1.2281    4.7953   18.0681 C.ar      1 <1>        -0.0626 
     21 C21        -0.2749    4.8443   17.0454 C.ar      1 <1>        -0.0667 
     22 C22         0.8505    5.6705   17.1513 C.ar      1 <1>        -0.0249 
     23 H3          5.1898   10.7772   22.1053 H         1 <1>         0.0238 
     24 H5          7.6341   11.1150   20.1966 H         1 <1>         0.0238 
     25 H6          6.5784   12.4448   20.7467 H         1 <1>         0.0238 
     26 H7          6.8506   12.1844   19.0034 H         1 <1>         0.0238 
     27 H8          4.3307   12.1096   18.6614 H         1 <1>         0.0480 
     28 H9          4.0076   12.2529   20.4081 H         1 <1>         0.0480 
     29 H10         6.5698    9.0245   19.0718 H         1 <1>         0.0480 
     30 H11         5.9016   10.1279   17.8416 H         1 <1>         0.0480 
     31 H12         1.0874    8.8880   19.0759 H         1 <1>         0.1313 
     32 H13         3.0761    6.8119   18.2001 H         1 <1>         0.2249 
     33 H14         0.2733    6.9010   20.2753 H         1 <1>         0.0511 
     34 H15        -1.7516    5.5204   20.0334 H         1 <1>         0.0475 
     35 C35        -2.4794    3.9211   17.9179 C.3       1 <1>        -0.0374 
     36 H16         2.7451    5.1625   16.2399 H         1 <1>         0.0371 
     37 H17         2.1479    6.8020   15.8201 H         1 <1>         0.0371 
     38 H18         1.4232    5.3684   15.0543 H         1 <1>         0.0371 
     39 H19        -2.7993    3.8792   16.8657 H         1 <1>         0.0371 
     40 H20        -3.3138    4.3186   18.5152 H         1 <1>         0.0371 
     41 H21        -2.2449    2.9032   18.2628 H         1 <1>         0.0371 
@<TRIPOS>BOND
     1    8    1 1    
     2    8    2 1    
     3   22    3 1    
     4   21    4 1    
     5    1    5 1    
     6    1    6 1    
     7    1   23 1    
     8    7    8 1    
     9    8    9 1    
    10    9   10 1    
    11   11   10 1    
    12   12   11 1    
    13    7   12 1    
    14   12   13 2    
    15   10   14 2    
    16   11   15 2    
    17   15   16 1    
    18   16   17 1    
    19   17   18 ar   
    20   18   19 ar   
    21   19   20 ar   
    22   21   20 ar   
    23   22   21 ar   
    24   17   22 ar   
    25    2   24 1    
    26    2   25 1    
    27    2   26 1    
    28    7   27 1    
    29    7   28 1    
    30    9   29 1    
    31    9   30 1    
    32   15   31 1    
    33   16   32 1    
    34   18   33 1    
    35   19   34 1    
    36   20   35 1    
    37    3   36 1    
    38    3   37 1    
    39    3   38 1    
    40   35   39 1    
    41   35   40 1    
    42   35   41 1    
@<TRIPOS>SUBSTRUCTURE
     1 ****        7 TEMP              0 ****  ****    0 ROOT 
@<TRIPOS>NORMAL
@<TRIPOS>FF_PBC
FORCE_FIELD_SETUP_FEATURE Force Field Setup information
v1.0  0 0.000000 0.000000 0.000000 0.000000 0.000000 0.000000 NONE 0 0 0 0 1 0 0 0 0 0 0 0 0
