#	Name:			PISM00793
#	Creating user name:	baoopengkun
#	Creation time:		Tue Jan 08 16:06:02 2019

#	Modifying user name:	baoopengkun
#	Modification time:	Tue Jan 08 16:06:20 2019

@<TRIPOS>MOLECULE
PISM00793
   48    52     1     1     0
SMALL
GAST_HUCK


@<TRIPOS>ATOM
      1 C1         18.5057    9.6081  -41.3037 C.2       1 <1>         0.0272 
      2 C2         16.0902   10.0062  -41.9105 C.ar      1 <1>        -0.0661 
      3 C3         14.7689   10.3815  -41.6308 C.ar      1 <1>        -0.0406 
      4 C4         14.4818   10.7950  -40.3307 C.ar      1 <1>         0.0668 
      5 C5         15.4823   10.8415  -39.3708 C.ar      1 <1>        -0.0092 
      6 C6         16.8042   10.4914  -39.6366 C.ar      1 <1>        -0.0626 
      7 C7         14.7281   11.3266  -38.1620 C.2       1 <1>        -0.0153 
      8 C8         13.4674   11.4942  -38.5446 C.2       1 <1>         0.1044 
      9 N9         13.2982   11.1905  -39.8042 N.pl3     1 <1>        -0.2672 
     10 C10        12.0340   11.2651  -40.5259 C.3       1 <1>         0.0370 
     11 C11        12.6848   11.9698  -37.4086 C.2       1 <1>         0.1400 
     12 O12        11.4937   12.2319  -37.3655 O.2       1 <1>        -0.4040 
     13 C13        13.6561   12.0766  -36.3038 C.2       1 <1>         0.0306 
     14 C14        15.0495   11.6351  -36.7257 C.3       1 <1>         0.0055 
     15 C15        13.3467   12.5145  -35.0793 C.2       1 <1>         0.0832 
     16 O16        14.3054   12.5935  -34.1452 O.3       1 <1>        -0.2667 
     17 C17        13.8451   13.0774  -32.8714 C.3       1 <1>         0.2401 
     18 C18        13.3058   14.4859  -32.9529 C.2       1 <1>        -0.0007 
     19 C19        12.0490   14.5240  -32.5137 C.2       1 <1>         0.0293 
     20 C20        11.7679   13.1387  -32.1502 C.2       1 <1>         0.2496 
     21 O21        12.7585   12.2795  -32.3599 O.3       1 <1>        -0.2302 
     22 C22        11.1351   15.7139  -32.4061 C.3       1 <1>        -0.0323 
     23 O23        10.6959   12.7862  -31.6901 O.2       1 <1>        -0.3691 
     24 C24        20.7034    8.8439  -41.0823 C.2       1 <1>        -0.0777 
     25 C25        20.6590    8.9963  -42.4074 C.2       1 <1>        -0.0086 
     26 S26        19.0862    9.5834  -42.9926 S.3       1 <1>        -0.0424 
     27 H1         16.3228    9.6715  -42.9156 H         1 <1>         0.0551 
     28 C28        19.4349    9.2003  -40.4320 C.2       1 <1>        -0.0722 
     29 H2         14.0002   10.3499  -42.3950 H         1 <1>         0.0550 
     30 H3         17.5512   10.5773  -38.8579 H         1 <1>         0.0558 
     31 H4         12.1342   11.9630  -41.3708 H         1 <1>         0.0555 
     32 H5         11.2153   11.6159  -39.8790 H         1 <1>         0.0555 
     33 H6         11.7722   10.2676  -40.9098 H         1 <1>         0.0555 
     34 C34        15.5259   10.3589  -35.9904 C.3       1 <1>        -0.0509 
     35 H8         15.7777   12.4586  -36.6527 H         1 <1>         0.0507 
     36 C36        17.1019   10.0464  -40.9340 C.ar      1 <1>        -0.0243 
     37 H9         12.3037   12.7907  -34.9071 H         1 <1>         0.1132 
     38 H10        14.6846   13.0457  -32.1584 H         1 <1>         0.1214 
     39 H11        13.8697   15.3432  -33.3181 H         1 <1>         0.0706 
     40 H12        10.6843   15.9186  -33.3884 H         1 <1>         0.0347 
     41 H13        11.6984   16.5994  -32.0755 H         1 <1>         0.0347 
     42 H14        10.3338   15.5108  -31.6798 H         1 <1>         0.0347 
     43 H15        21.5804    8.4936  -40.5380 H         1 <1>         0.0415 
     44 H16        21.4951    8.7855  -43.0736 H         1 <1>         0.0717 
     45 H17        19.3128    9.1174  -39.3537 H         1 <1>         0.0410 
     46 H7         14.7690    9.5639  -36.0771 H         1 <1>         0.0265 
     47 H18        15.6981   10.5686  -34.9242 H         1 <1>         0.0265 
     48 H19        16.4677   10.0009  -36.4338 H         1 <1>         0.0265 
@<TRIPOS>BOND
     1    1   36 1    
     2    3    2 ar   
     3    4    3 ar   
     4    5    4 ar   
     5    6    5 ar   
     6   24   28 1    
     7    5    7 1    
     8    7    8 2    
     9    8    9 1    
    10    4    9 1    
    11    9   10 1    
    12    8   11 1    
    13   11   12 2    
    14   13   11 1    
    15   14   13 1    
    16    7   14 1    
    17   13   15 2    
    18   15   16 1    
    19   16   17 1    
    20   17   18 1    
    21   18   19 2    
    22   20   19 1    
    23   21   20 1    
    24   17   21 1    
    25   19   22 1    
    26   20   23 2    
    27   36    6 ar   
    28   25   24 2    
    29   26   25 1    
    30    1   26 1    
    31    2   27 1    
    32    1   28 2    
    33    3   29 1    
    34    6   30 1    
    35   10   31 1    
    36   10   32 1    
    37   10   33 1    
    38   14   34 1    
    39   14   35 1    
    40   15   37 1    
    41    2   36 ar   
    42   17   38 1    
    43   18   39 1    
    44   22   40 1    
    45   22   41 1    
    46   22   42 1    
    47   24   43 1    
    48   25   44 1    
    49   28   45 1    
    50   34   46 1    
    51   34   47 1    
    52   34   48 1    
@<TRIPOS>SUBSTRUCTURE
     1 ****        2 TEMP              0 ****  ****    0 ROOT 
@<TRIPOS>NORMAL
@<TRIPOS>FF_PBC
FORCE_FIELD_SETUP_FEATURE Force Field Setup information
v1.0  0 0.000000 0.000000 0.000000 0.000000 0.000000 0.000000 NONE 0 0 0 0 1 0 0 0 0 0 0 0 0
