#	Name:			PISM00820
#	Creating user name:	baoopengkun
#	Creation time:		Wed Jan 09 15:45:10 2019

#	Modifying user name:	baoopengkun
#	Modification time:	Wed Jan 09 15:46:38 2019

@<TRIPOS>MOLECULE
PISM00820
   32    33     1     2     0
SMALL
GAST_HUCK


@<TRIPOS>ATOM
      1 C1         -2.9475    3.7054    6.1386 C.ar      1 <1>        -0.0739 
      2 C2         -2.1831    4.8488    6.3893 C.ar      1 <1>        -0.0421 
      3 C3         -2.1893    5.9313    5.4980 C.ar      1 <1>         0.1262 
      4 C4         -2.9982    5.8411    4.3561 C.ar      1 <1>        -0.0421 
      5 C5         -3.7840    4.7096    4.1170 C.ar      1 <1>        -0.0739 
      6 C6         -3.7547    3.6254    4.9999 C.ar      1 <1>        -0.0424 
      7 N7         -1.4327    7.0375    5.7347 N.pl3     1 <1>         0.1186 
      8 O8         -0.7322    7.0534    6.7238 O.2       1 <1>        -0.1140 
      9 O9         -1.4941    7.9552    4.9452 O.2       1 <1>        -0.1140 
     10 C10        -4.5810    2.3816    4.7402 C.2       1 <1>         0.0432 
     11 C11        -5.3124    1.7902    5.8812 C.2       1 <1>         0.1021 
     12 O12        -5.8504    0.6971    5.8121 O.2       1 <1>        -0.3837 
     13 C13        -4.6259    1.8575    3.5068 C.2       1 <1>         0.0977 
     14 O14        -5.3771    0.7736    3.2642 O.3       1 <1>        -0.2535 
     15 C15        -5.2970    0.2981    1.9116 C.3       1 <1>         0.2446 
     16 C16        -6.3348   -0.7845    1.7473 C.2       1 <1>         0.0002 
     17 C17        -7.2557   -0.4177    0.8581 C.2       1 <1>         0.0294 
     18 C18        -6.8071    0.9014    0.4266 C.2       1 <1>         0.2496 
     19 O19        -5.6870    1.3369    0.9896 O.3       1 <1>        -0.2294 
     20 C20        -8.4639   -1.1829    0.3917 C.3       1 <1>        -0.0323 
     21 O21        -7.4111    1.5626   -0.4001 O.2       1 <1>        -0.3691 
     22 H1         -2.9036    2.8736    6.8350 H         1 <1>         0.0531 
     23 H2         -1.5813    4.8782    7.2921 H         1 <1>         0.0508 
     24 H3         -3.0308    6.6521    3.6355 H         1 <1>         0.0508 
     25 H4         -4.4254    4.6862    3.2414 H         1 <1>         0.0531 
     26 H5         -5.3864    2.3299    6.8245 H         1 <1>         0.1254 
     27 H6         -4.0378    2.3346    2.7197 H         1 <1>         0.1282 
     28 H7         -4.2923   -0.0857    1.6664 H         1 <1>         0.1224 
     29 H8         -6.3291   -1.7288    2.2905 H         1 <1>         0.0707 
     30 H9         -8.2665   -2.2652    0.4124 H         1 <1>         0.0347 
     31 H10        -8.7216   -0.8877   -0.6365 H         1 <1>         0.0347 
     32 H11        -9.3143   -0.9586    1.0525 H         1 <1>         0.0347 
@<TRIPOS>BOND
     1    2    1 ar   
     2    2    3 ar   
     3    3    4 ar   
     4    4    5 ar   
     5    5    6 ar   
     6    1    6 ar   
     7    3    7 1    
     8    7    8 2    
     9    7    9 2    
    10    6   10 1    
    11   10   11 1    
    12   11   12 2    
    13   10   13 2    
    14   13   14 1    
    15   14   15 1    
    16   15   16 1    
    17   16   17 2    
    18   17   18 1    
    19   18   19 1    
    20   15   19 1    
    21   17   20 1    
    22   18   21 2    
    23    1   22 1    
    24    2   23 1    
    25    4   24 1    
    26    5   25 1    
    27   11   26 1    
    28   13   27 1    
    29   15   28 1    
    30   16   29 1    
    31   20   30 1    
    32   20   31 1    
    33   20   32 1    
@<TRIPOS>SUBSTRUCTURE
     1 ****        2 TEMP              0 ****  ****    0 ROOT 
@<TRIPOS>NORMAL
@<TRIPOS>FF_PBC
FORCE_FIELD_SETUP_FEATURE Force Field Setup information
v1.0  0 0.000000 0.000000 0.000000 0.000000 0.000000 0.000000 NONE 0 0 0 0 1 0 0 0 0 0 0 0 0
@<TRIPOS>RENDERING_ATTRS
ANTIALIASED_LINES 
*
