#	Name:			PISM00900.1
#	Creating user name:	baoopengkun
#	Creation time:		Fri Dec 14 10:18:06 2018

#	Modifying user name:	baoopengkun
#	Modification time:	Fri Dec 14 10:21:31 2018

@<TRIPOS>MOLECULE
PISM00900.1
   31    32     1     1     0
SMALL
GAST_HUCK


@<TRIPOS>ATOM
      1 C1         17.2458   16.0699   -3.5555 C.ar      1 <1>        -0.0378 
      2 C2         18.5325   16.1574   -3.0166 C.ar      1 <1>        -0.0714 
      3 C3         18.7137   16.1107   -1.6315 C.ar      1 <1>        -0.0733 
      4 C4         17.6067   15.9918   -0.7863 C.ar      1 <1>        -0.0714 
      5 C5         16.3204   15.9101   -1.3274 C.ar      1 <1>        -0.0378 
      6 C6         16.1386   15.9211   -2.7143 C.ar      1 <1>         0.0694 
      7 N7         14.8989   15.7905   -3.2468 N.pl3     1 <1>        -0.2324 
      8 C8         14.3476   16.8833   -4.0509 C.3       1 <1>         0.0417 
      9 C9         14.2160   14.6894   -3.0534 C.2       1 <1>         0.1479 
     10 S10        12.6534   14.4673   -3.7198 S.2       1 <1>        -0.2380 
     11 S11        14.8771   13.3322   -2.0982 S.3       1 <1>         0.0086 
     12 C12        15.2196   12.2548   -3.5229 C.3       1 <1>         0.1814 
     13 C13        16.1519   12.9699   -4.4727 C.2       1 <1>        -0.0202 
     14 C14        17.3539   12.3975   -4.4639 C.2       1 <1>         0.0274 
     15 C15        17.1962   11.2832   -3.5354 C.2       1 <1>         0.2478 
     16 O16        15.9812   11.1386   -3.0192 O.3       1 <1>        -0.2497 
     17 O17        18.1095   10.5255   -3.2568 O.2       1 <1>        -0.3691 
     18 C18        18.5828   12.8051   -5.2294 C.3       1 <1>        -0.0323 
     19 H1         17.1069   16.1145   -4.6305 H         1 <1>         0.0536 
     20 H2         19.3912   16.2614   -3.6730 H         1 <1>         0.0587 
     21 H3         19.7136   16.1682   -1.2120 H         1 <1>         0.0520 
     22 H4         17.7459   15.9639    0.2902 H         1 <1>         0.0587 
     23 H5         15.4604   15.8404   -0.6691 H         1 <1>         0.0536 
     24 H6         15.0196   17.7559   -4.0769 H         1 <1>         0.0539 
     25 H7         13.3868   17.2165   -3.6283 H         1 <1>         0.0539 
     26 H8         14.1876   16.5431   -5.0859 H         1 <1>         0.0539 
     27 H9         14.2897   11.9173   -4.0067 H         1 <1>         0.0979 
     28 H10        15.8858   13.8360   -5.0771 H         1 <1>         0.0687 
     29 H11        18.4673   12.5236   -6.2865 H         1 <1>         0.0347 
     30 H12        19.4705   12.3009   -4.8190 H         1 <1>         0.0347 
     31 H13        18.7281   13.8931   -5.1593 H         1 <1>         0.0347 
@<TRIPOS>BOND
     1    2    1 ar   
     2    2    3 ar   
     3    3    4 ar   
     4    4    5 ar   
     5    5    6 ar   
     6    1    6 ar   
     7    6    7 1    
     8    7    8 1    
     9    7    9 1    
    10    9   10 2    
    11    9   11 1    
    12   11   12 1    
    13   12   13 1    
    14   13   14 2    
    15   14   15 1    
    16   15   16 1    
    17   12   16 1    
    18   15   17 2    
    19   14   18 1    
    20    1   19 1    
    21    2   20 1    
    22    3   21 1    
    23    4   22 1    
    24    5   23 1    
    25    8   24 1    
    26    8   25 1    
    27    8   26 1    
    28   12   27 1    
    29   13   28 1    
    30   18   29 1    
    31   18   30 1    
    32   18   31 1    
@<TRIPOS>SUBSTRUCTURE
     1 ****        2 TEMP              0 ****  ****    0 ROOT 
@<TRIPOS>NORMAL
@<TRIPOS>FF_PBC
FORCE_FIELD_SETUP_FEATURE Force Field Setup information
v1.0  0 0.000000 0.000000 0.000000 0.000000 0.000000 0.000000 NONE 0 0 0 0 1 0 0 0 0 0 0 0 0
