#	Name:			PISM00759.1
#	Creating user name:	baoopengkun
#	Creation time:		Sun Dec 02 11:38:55 2018

#	Modifying user name:	baoopengkun
#	Modification time:	Sun Dec 02 11:43:22 2018

@<TRIPOS>MOLECULE
PISM00759.1
   30    31     1     2     0
SMALL
GAST_HUCK


@<TRIPOS>ATOM
      1 C1         -3.4193    5.6670   -3.6989 C.2       1 <1>         0.1054 
      2 C2         -4.1014    6.6788   -2.8176 C.3       1 <1>         0.0158 
      3 C3         -3.9967    6.3057   -1.3178 C.3       1 <1>        -0.0375 
      4 C4         -2.0908    4.6760   -1.7049 C.3       1 <1>        -0.0269 
      5 C5         -2.4269    4.6998   -3.1792 C.2       1 <1>         0.0181 
      6 O6         -3.7053    5.6567   -4.8855 O.2       1 <1>        -0.4001 
      7 C7         -1.8240    3.8389   -4.0118 C.2       1 <1>         0.0764 
      8 O8         -0.9320    2.9611   -3.5257 O.3       1 <1>        -0.2718 
      9 C9         -0.3875    2.0603   -4.5073 C.3       1 <1>         0.2384 
     10 O10         0.5794    1.2313   -3.8320 O.3       1 <1>        -0.2305 
     11 C11         0.0996   -0.0037   -3.9039 C.2       1 <1>         0.2495 
     12 C12        -1.1576   -0.1470   -4.6285 C.2       1 <1>         0.0293 
     13 C13        -1.4454    1.0984   -5.0009 C.2       1 <1>        -0.0010 
     14 C14        -1.9425   -1.4018   -4.8975 C.3       1 <1>        -0.0323 
     15 O15         0.6800   -0.9510   -3.4024 O.2       1 <1>        -0.3691 
     16 C16        -2.5262    5.9698   -0.9699 C.3       1 <1>        -0.0464 
     17 H1         -5.1642    6.7520   -3.0998 H         1 <1>         0.0475 
     18 H2         -3.6266    7.6546   -3.0057 H         1 <1>         0.0475 
     19 H3         -4.6336    5.4320   -1.1005 H         1 <1>         0.0289 
     20 H4         -4.3508    7.1510   -0.7038 H         1 <1>         0.0289 
     21 H5         -1.0076    4.5371   -1.5521 H         1 <1>         0.0353 
     22 H6         -2.6121    3.8108   -1.2646 H         1 <1>         0.0353 
     23 H7         -2.0800    3.8782   -5.0732 H         1 <1>         0.1073 
     24 H8          0.1169    2.5891   -5.3338 H         1 <1>         0.1210 
     25 H9         -2.3273    1.3752   -5.5770 H         1 <1>         0.0706 
     26 H10        -1.4196   -2.2770   -4.4836 H         1 <1>         0.0347 
     27 H11        -2.0646   -1.5390   -5.9822 H         1 <1>         0.0347 
     28 H12        -2.9351   -1.3248   -4.4292 H         1 <1>         0.0347 
     29 H13        -1.8777    6.8094   -1.2714 H         1 <1>         0.0281 
     30 H14        -2.4181    5.8273    0.1189 H         1 <1>         0.0281 
@<TRIPOS>BOND
     1    2    1 1    
     2    2    3 1    
     3    5    4 1    
     4    4   16 1    
     5    1    5 1    
     6    1    6 2    
     7    5    7 2    
     8    7    8 1    
     9    8    9 1    
    10    9   10 1    
    11   10   11 1    
    12   12   11 1    
    13   13   12 2    
    14    9   13 1    
    15   12   14 1    
    16   11   15 2    
    17    3   16 1    
    18    2   17 1    
    19    2   18 1    
    20    3   19 1    
    21    3   20 1    
    22    4   21 1    
    23    4   22 1    
    24    7   23 1    
    25    9   24 1    
    26   13   25 1    
    27   14   26 1    
    28   14   27 1    
    29   14   28 1    
    30   16   29 1    
    31   16   30 1    
@<TRIPOS>SUBSTRUCTURE
     1 ****        2 TEMP              0 ****  ****    0 ROOT 
@<TRIPOS>NORMAL
@<TRIPOS>FF_PBC
FORCE_FIELD_SETUP_FEATURE Force Field Setup information
v1.0  0 0.000000 0.000000 0.000000 0.000000 0.000000 0.000000 NONE 0 0 0 0 1 0 0 0 0 0 0 0 0
@<TRIPOS>RENDERING_ATTRS
ANTIALIASED_LINES 
*
