#	Name:			PISM00377
#	Creating user name:	baoopengkun
#	Creation time:		Sun Mar 31 21:57:26 2019

#	Modifying user name:	baoopengkun
#	Modification time:	Sun Mar 31 22:01:41 2019

@<TRIPOS>MOLECULE
PISM00377
   60    61     1     1     0
SMALL
GAST_HUCK


@<TRIPOS>ATOM
      1 O1         14.3022   -0.5578   -3.6719 O.3       1 <1>        -0.3203 
      2 C2         13.3224    0.3012   -4.1680 C.ar      1 <1>         0.0922 
      3 C3         13.4605    1.6847   -4.0140 C.ar      1 <1>        -0.0309 
      4 C4         12.5508    2.5510   -4.6279 C.ar      1 <1>        -0.0542 
      5 C5         11.5008    2.0278   -5.3887 C.ar      1 <1>         0.0144 
      6 C6         11.2878    0.6462   -5.4299 C.ar      1 <1>        -0.0542 
      7 C7         12.2058   -0.2189   -4.8294 C.ar      1 <1>        -0.0309 
      8 C8         10.6383    2.8903   -6.1591 C.1       1 <1>        -0.0733 
      9 C9          9.9267    3.5767   -6.8440 C.1       1 <1>        -0.0743 
     10 C10         9.0680    4.3670   -7.7188 C.3       1 <1>         0.1123 
     11 O11         7.6805    4.0845   -7.4481 O.3       1 <1>        -0.3389 
     12 C12         7.1147    4.7768   -6.3139 C.3       1 <1>         0.1161 
     13 C13         6.7549    6.2577   -6.6089 C.3       1 <1>        -0.0149 
     14 C14         5.5163    6.3920   -7.5416 C.3       1 <1>        -0.0599 
     15 C15         4.2821    5.7809   -6.7917 C.3       1 <1>         0.0164 
     16 C16         4.6119    4.4661   -6.1069 C.2       1 <1>        -0.0800 
     17 C17         5.8653    4.0275   -5.9199 C.2       1 <1>        -0.0120 
     18 C18         3.4395    3.6572   -5.5869 C.3       1 <1>        -0.0473 
     19 C19         5.7624    5.6567   -8.8960 C.3       1 <1>        -0.0740 
     20 C20         5.3196    7.9063   -7.8672 C.3       1 <1>        -0.0740 
     21 C21         3.0939    5.6876   -7.7345 C.2       1 <1>        -0.1031 
     22 C22         2.8168    4.6328   -8.5146 C.2       1 <1>        -0.0274 
     23 C23         1.6480    4.5612   -9.4250 C.2       1 <1>         0.0135 
     24 C24         0.3936    5.3109   -9.0287 C.3       1 <1>        -0.0153 
     25 C25         1.6510    3.8576  -10.5717 C.2       1 <1>         0.0548 
     26 C26         2.7453    3.0779  -11.1813 C.2       1 <1>         0.2661 
     27 O27         3.8734    3.0970  -10.7145 O.2       1 <1>        -0.3516 
     28 O28         2.4985    2.3465  -12.2701 O.3       1 <1>        -0.2932 
     29 O29         3.9038    6.5644   -5.6449 O.3       1 <1>        -0.4739 
     30 C30        14.0508   -1.0483   -2.3466 C.3       1 <1>         0.0598 
     31 H1         14.2806    2.0789   -3.4218 H         1 <1>         0.0547 
     32 H2         12.6655    3.6269   -4.5233 H         1 <1>         0.0605 
     33 H3         10.4133    0.2460   -5.9362 H         1 <1>         0.0605 
     34 H4         12.0596   -1.2933   -4.8801 H         1 <1>         0.0547 
     35 H5          9.2624    4.0003   -8.7368 H         1 <1>         0.0696 
     36 H6          9.3530    5.4271   -7.6822 H         1 <1>         0.0696 
     37 H7          7.8139    4.7339   -5.4594 H         1 <1>         0.0935 
     38 H8          7.6127    6.7897   -7.0403 H         1 <1>         0.0325 
     39 H9          6.5210    6.7538   -5.6524 H         1 <1>         0.0325 
     40 H10         6.0240    3.0609   -5.4419 H         1 <1>         0.1201 
     41 H11         3.1819    2.8477   -6.2837 H         1 <1>         0.0360 
     42 H12         2.5533    4.2916   -5.4366 H         1 <1>         0.0360 
     43 H13         3.6851    3.2070   -4.6136 H         1 <1>         0.0360 
     44 H14         5.7423    4.5652   -8.7803 H         1 <1>         0.0219 
     45 H15         6.7393    5.9378   -9.3158 H         1 <1>         0.0219 
     46 H16         4.9943    5.9225   -9.6369 H         1 <1>         0.0219 
     47 H17         4.3932    8.0646   -8.4398 H         1 <1>         0.0219 
     48 H18         6.1605    8.2819   -8.4715 H         1 <1>         0.0219 
     49 H19         5.2756    8.5188   -6.9546 H         1 <1>         0.0219 
     50 H20         2.4407    6.5589   -7.7815 H         1 <1>         0.0477 
     51 H21         3.4866    3.7775   -8.4807 H         1 <1>         0.1020 
     52 H22        -0.5209    4.8462   -9.4273 H         1 <1>         0.0428 
     53 H23         0.4571    6.3408   -9.4117 H         1 <1>         0.0428 
     54 H24         0.2951    5.3391   -7.9327 H         1 <1>         0.0428 
     55 H25         0.7435    3.8337  -11.1737 H         1 <1>         0.0888 
     56 H26         3.2753    1.8918  -12.5770 H         1 <1>         0.2516 
     57 H27         3.5555    7.4245   -5.8471 H         1 <1>         0.1784 
     58 H28        13.1068   -1.6142   -2.3110 H         1 <1>         0.0578 
     59 H29        14.0073   -0.2143   -1.6293 H         1 <1>         0.0578 
     60 H30        14.8770   -1.7174   -2.0616 H         1 <1>         0.0578 
@<TRIPOS>BOND
     1    2    1 1    
     2    2    3 ar   
     3    3    4 ar   
     4    4    5 ar   
     5    5    6 ar   
     6    6    7 ar   
     7    2    7 ar   
     8    5    8 1    
     9    8    9 3    
    10    9   10 1    
    11   10   11 1    
    12   11   12 1    
    13   12   13 1    
    14   13   14 1    
    15   14   15 1    
    16   15   16 1    
    17   16   17 2    
    18   12   17 1    
    19   16   18 1    
    20   14   19 1    
    21   14   20 1    
    22   15   21 1    
    23   21   22 2    
    24   22   23 1    
    25   23   24 1    
    26   23   25 2    
    27   25   26 1    
    28   26   27 2    
    29   26   28 1    
    30   15   29 1    
    31    1   30 1    
    32    3   31 1    
    33    4   32 1    
    34    6   33 1    
    35    7   34 1    
    36   10   35 1    
    37   10   36 1    
    38   12   37 1    
    39   13   38 1    
    40   13   39 1    
    41   17   40 1    
    42   18   41 1    
    43   18   42 1    
    44   18   43 1    
    45   19   44 1    
    46   19   45 1    
    47   19   46 1    
    48   20   47 1    
    49   20   48 1    
    50   20   49 1    
    51   21   50 1    
    52   22   51 1    
    53   24   52 1    
    54   24   53 1    
    55   24   54 1    
    56   25   55 1    
    57   28   56 1    
    58   29   57 1    
    59   30   58 1    
    60   30   59 1    
    61   30   60 1    
@<TRIPOS>SUBSTRUCTURE
     1 ****        2 TEMP              0 ****  ****    0 ROOT 
@<TRIPOS>NORMAL
@<TRIPOS>FF_PBC
FORCE_FIELD_SETUP_FEATURE Force Field Setup information
v1.0  0 0.000000 0.000000 0.000000 0.000000 0.000000 0.000000 NONE 0 0 0 0 1 0 0 0 0 0 0 0 0
