#	Name:			PISM00159
#	Creating user name:	14062
#	Creation time:		Sun Mar 31 11:09:14 2019

#	Modifying user name:	14062
#	Modification time:	Sun Mar 31 11:26:38 2019

@<TRIPOS>MOLECULE
PISM00159
   52    55     1     1     0
SMALL
GAST_HUCK


@<TRIPOS>ATOM
      1 C1         -7.0777    6.7636   -1.4436 C.ar      1 <1>        -0.0627 
      2 C2         -7.2888    8.1390   -1.3331 C.ar      1 <1>        -0.0620 
      3 C3         -6.2710    9.0201   -1.7014 C.ar      1 <1>        -0.0544 
      4 C4         -5.0350    8.5295   -2.1414 C.ar      1 <1>        -0.0149 
      5 C5         -4.7775    7.1495   -2.1555 C.ar      1 <1>        -0.0092 
      6 C6         -5.8450    6.2783   -1.8878 C.ar      1 <1>        -0.0558 
      7 C7         -4.0543    9.4293   -2.5724 C.ar      1 <1>        -0.0460 
      8 C8         -2.8420    8.9481   -3.0676 C.ar      1 <1>        -0.0133 
      9 C9         -2.5653    7.5815   -3.0423 C.ar      1 <1>         0.1170 
     10 C10        -3.4756    6.6984   -2.4370 C.ar      1 <1>         0.0469 
     11 O11        -1.3747    7.1359   -3.6261 O.3       1 <1>        -0.3195 
     12 C12        -2.9924    5.3026   -2.0920 C.2       1 <1>         0.0173 
     13 N13        -1.7683    5.0175   -2.3077 N.2       1 <1>        -0.3023 
     14 C14        -1.1744    3.8353   -2.0335 C.ar      1 <1>         0.0408 
     15 C15        -1.4741    3.1201   -0.8669 C.ar      1 <1>        -0.0427 
     16 C16        -0.8815    1.8763   -0.6302 C.ar      1 <1>        -0.0598 
     17 C17         0.0348    1.3548   -1.5467 C.ar      1 <1>        -0.0594 
     18 C18         0.3606    2.0816   -2.6951 C.ar      1 <1>        -0.0444 
     19 C19        -0.2206    3.3332   -2.9279 C.ar      1 <1>         0.0624 
     20 C20         0.1716    4.1527   -4.1410 C.2       1 <1>         0.2047 
     21 O21        -0.7181    4.7590   -4.7142 O.2       1 <1>        -0.3871 
     22 N22         1.4649    4.2041   -4.5406 N.am      1 <1>        -0.2730 
     23 C23         1.8864    4.9298   -5.7466 C.3       1 <1>         0.0721 
     24 C24         1.7792    4.0470   -7.0078 C.ar      1 <1>        -0.0183 
     25 C25         1.3912    2.7027   -6.9241 C.ar      1 <1>        -0.0582 
     26 C26         1.3616    1.8926   -8.0627 C.ar      1 <1>        -0.0685 
     27 C27         1.6773    2.4283   -9.3129 C.ar      1 <1>        -0.0687 
     28 C28         2.0292    3.7761   -9.4156 C.ar      1 <1>        -0.0685 
     29 C29         2.0866    4.5745   -8.2693 C.ar      1 <1>        -0.0582 
     30 C30         1.2001    6.3163   -5.9156 C.3       1 <1>        -0.0320 
     31 H1         -7.8753    6.0728   -1.1865 H         1 <1>         0.0627 
     32 H2         -8.2381    8.5194   -0.9682 H         1 <1>         0.0595 
     33 H3         -6.4533   10.0887   -1.6424 H         1 <1>         0.0637 
     34 H4         -5.7547    5.2088   -2.0284 H         1 <1>         0.0598 
     35 H5         -4.2247   10.5010   -2.5358 H         1 <1>         0.0707 
     36 H6         -2.1062    9.6342   -3.4751 H         1 <1>         0.0617 
     37 H7         -1.3482    6.1925   -3.7842 H         1 <1>         0.2563 
     38 H8         -3.6531    4.5536   -1.6630 H         1 <1>         0.1032 
     39 H9         -2.1598    3.5267   -0.1308 H         1 <1>         0.0613 
     40 H10        -1.1323    1.3164    0.2659 H         1 <1>         0.0643 
     41 H11         0.4929    0.3866   -1.3666 H         1 <1>         0.0602 
     42 H12         1.0623    1.6591   -3.4062 H         1 <1>         0.0661 
     43 H13         2.1672    3.7188   -4.0172 H         1 <1>         0.1872 
     44 H14         2.9654    5.1431   -5.6409 H         1 <1>         0.0716 
     45 H15         1.1102    2.2618   -5.9750 H         1 <1>         0.0557 
     46 H16         1.0939    0.8434   -7.9775 H         1 <1>         0.0599 
     47 H17         1.6509    1.8020  -10.1996 H         1 <1>         0.0559 
     48 H18         2.2611    4.2029  -10.3865 H         1 <1>         0.0599 
     49 H19         2.3808    5.6116   -8.3770 H         1 <1>         0.0557 
     50 H20         0.2116    6.2126   -6.3868 H         1 <1>         0.0274 
     51 H21         1.7960    6.9988   -6.5407 H         1 <1>         0.0274 
     52 H22         1.0831    6.7897   -4.9287 H         1 <1>         0.0274 
@<TRIPOS>BOND
     1    2    1 ar   
     2    2    3 ar   
     3    3    4 ar   
     4    4    5 ar   
     5    5    6 ar   
     6    1    6 ar   
     7    4    7 ar   
     8    7    8 ar   
     9    8    9 ar   
    10    9   10 ar   
    11    5   10 ar   
    12    9   11 1    
    13   10   12 1    
    14   12   13 2    
    15   13   14 1    
    16   14   15 ar   
    17   15   16 ar   
    18   16   17 ar   
    19   17   18 ar   
    20   18   19 ar   
    21   14   19 ar   
    22   19   20 1    
    23   20   21 2    
    24   20   22 am   
    25   22   23 1    
    26   23   24 1    
    27   24   25 ar   
    28   25   26 ar   
    29   26   27 ar   
    30   27   28 ar   
    31   28   29 ar   
    32   24   29 ar   
    33   23   30 1    
    34    1   31 1    
    35    2   32 1    
    36    3   33 1    
    37    6   34 1    
    38    7   35 1    
    39    8   36 1    
    40   11   37 1    
    41   12   38 1    
    42   15   39 1    
    43   16   40 1    
    44   17   41 1    
    45   18   42 1    
    46   22   43 1    
    47   23   44 1    
    48   25   45 1    
    49   26   46 1    
    50   27   47 1    
    51   28   48 1    
    52   29   49 1    
    53   30   50 1    
    54   30   51 1    
    55   30   52 1    
@<TRIPOS>SUBSTRUCTURE
     1 ****        2 TEMP              0 ****  ****    0 ROOT 
@<TRIPOS>NORMAL
@<TRIPOS>FF_PBC
FORCE_FIELD_SETUP_FEATURE Force Field Setup information
v1.0  0 0.000000 0.000000 0.000000 0.000000 0.000000 0.000000 NONE 0 0 0 0 1 0 0 0 0 0 0 0 0
