#	Name:			PISM00399
#	Creating user name:	malab
#	Creation time:		Tue Apr 02 19:22:01 2019

#	Modifying user name:	malab
#	Modification time:	Tue Apr 02 20:31:20 2019

@<TRIPOS>MOLECULE
PISM00399
   37    38     1     1     0
SMALL
GAST_HUCK


@<TRIPOS>ATOM
      1 C1          9.1513    1.4410    0.1172 C.2       1 <1>         0.0683 
      2 C2         10.3887    0.9464   -0.0710 C.2       1 <1>        -0.0452 
      3 N3         10.3946    0.7763   -1.4952 N.2       1 <1>        -0.3647 
      4 C4          9.2955    1.1383   -1.9787 C.2       1 <1>         0.0730 
      5 N5          8.5047    1.5480   -1.0260 N.pl3     1 <1>        -0.2692 
      6 C6          7.2735    2.0087   -1.1372 C.2       1 <1>         0.0330 
      7 C7          6.5468    2.3947    0.1528 C.3       1 <1>         0.1371 
      8 F8          7.3801    3.0106    1.0411 F         1 <1>        -0.2363 
      9 H1         11.1685    0.7353    0.6585 H         1 <1>         0.0340 
     10 H2          9.1518    1.0684   -3.0543 H         1 <1>         0.0954 
     11 C11         6.6612    2.1391   -2.3316 C.2       1 <1>        -0.1246 
     12 C12         4.9878    4.0452   -2.2597 C.ar      1 <1>        -0.1130 
     13 C13         3.6843    4.5315   -2.3975 C.ar      1 <1>        -0.0971 
     14 C14         2.6722    3.6942   -2.8743 C.ar      1 <1>        -0.0123 
     15 C15         2.9702    2.3762   -3.2304 C.ar      1 <1>        -0.0971 
     16 C16         4.2723    1.8892   -3.0828 C.ar      1 <1>        -0.1130 
     17 Cl17        1.0337    4.2964   -3.0281 Cl        1 <1>        -0.1134 
     18 C18         5.2754    2.7078   -2.5532 C.ar      1 <1>        -0.1227 
     19 C19         5.7851    1.2262    0.8651 C.3       1 <1>        -0.0014 
     20 C20         6.7509    0.0814    1.2876 C.3       1 <1>        -0.0563 
     21 C21         5.0850    1.7786    2.1445 C.3       1 <1>        -0.0563 
     22 C22         4.6953    0.6338   -0.0748 C.3       1 <1>        -0.0563 
     23 H3          5.8011    3.1713   -0.0471 H         1 <1>         0.0752 
     24 H4          7.1000    1.8473   -3.2807 H         1 <1>        -0.0078 
     25 H5          5.7791    4.7107   -1.9287 H         1 <1>         0.0315 
     26 H6          3.4572    5.5596   -2.1363 H         1 <1>         0.0473 
     27 H7          2.1897    1.7320   -3.6207 H         1 <1>         0.0473 
     28 H8          4.5035    0.8707   -3.3779 H         1 <1>         0.0315 
     29 H9          6.2016   -0.7145    1.8133 H         1 <1>         0.0237 
     30 H10         7.5277    0.4617    1.9677 H         1 <1>         0.0237 
     31 H11         7.2327   -0.3708    0.4078 H         1 <1>         0.0237 
     32 H12         4.3745    2.5793    1.8875 H         1 <1>         0.0237 
     33 H13         5.8260    2.1880    2.8480 H         1 <1>         0.0237 
     34 H14         4.5278    0.9826    2.6618 H         1 <1>         0.0237 
     35 H15         5.1569    0.1957   -0.9715 H         1 <1>         0.0237 
     36 H16         3.9837    1.4143   -0.3839 H         1 <1>         0.0237 
     37 H17         4.1283   -0.1600    0.4349 H         1 <1>         0.0237 
@<TRIPOS>BOND
     1    2    1 2    
     2    2    3 1    
     3    3    4 2    
     4    4    5 1    
     5    1    5 1    
     6    5    6 1    
     7    6    7 1    
     8    7    8 1    
     9    2    9 1    
    10    4   10 1    
    11    7   23 1    
    12    6   11 2    
    13   18   12 ar   
    14   12   13 ar   
    15   13   14 ar   
    16   14   15 ar   
    17   15   16 ar   
    18   18   16 ar   
    19   11   18 1    
    20   14   17 1    
    21    7   19 1    
    22   19   20 1    
    23   19   21 1    
    24   19   22 1    
    25   11   24 1    
    26   12   25 1    
    27   13   26 1    
    28   15   27 1    
    29   16   28 1    
    30   20   29 1    
    31   20   30 1    
    32   20   31 1    
    33   21   32 1    
    34   21   33 1    
    35   21   34 1    
    36   22   35 1    
    37   22   36 1    
    38   22   37 1    
@<TRIPOS>SUBSTRUCTURE
     1 ****        2 TEMP              0 ****  ****    0 ROOT 
@<TRIPOS>NORMAL
@<TRIPOS>FF_PBC
FORCE_FIELD_SETUP_FEATURE Force Field Setup information
v1.0  0 0.000000 0.000000 0.000000 0.000000 0.000000 0.000000 NONE 0 0 0 0 1 0 0 0 0 0 0 0 0
