#	Name:			PISM00644
#	Creating user name:	baoopengkun
#	Creation time:		Wed Jan 09 15:49:15 2019

#	Modifying user name:	baoopengkun
#	Modification time:	Wed Jan 09 15:51:34 2019

@<TRIPOS>MOLECULE
PISM00644
   26    26     1     1     0
SMALL
GAST_HUCK


@<TRIPOS>ATOM
      1 Cl1        -1.1577   -2.0200   -0.3289 Cl        1 <1>        -0.0722 
      2 C2         -0.9171   -0.5074    0.5213 C.ar      1 <1>         0.0547 
      3 C3          0.2225   -0.3105    1.3045 C.ar      1 <1>        -0.0387 
      4 C4          0.3883    0.9042    1.9749 C.ar      1 <1>        -0.0102 
      5 C5         -0.5877    1.8976    1.8487 C.ar      1 <1>         0.1355 
      6 N6         -1.6742    1.6833    1.0778 N.ar      1 <1>        -0.2798 
      7 C7         -1.8621    0.5175    0.4249 C.ar      1 <1>         0.0116 
      8 N8         -0.4371    3.0833    2.4833 N.pl3     1 <1>        -0.2574 
      9 C9         -1.3414    3.5779    3.2965 C.2       1 <1>         0.0303 
     10 C10        -2.4771    2.9408    3.6243 C.2       1 <1>        -0.1164 
     11 C11        -1.0487    4.9411    3.8971 C.3       1 <1>         0.0234 
     12 C12        -0.0511    4.7877    5.0753 C.3       1 <1>         0.0623 
     13 C13         0.2925    6.1210    5.6998 C.2       1 <1>         0.2336 
     14 O14        -0.1670    7.1598    5.2589 O.2       1 <1>        -0.3704 
     15 O15         1.1165    6.1600    6.7519 O.3       1 <1>        -0.2926 
     16 H1          0.9685   -1.0938    1.3900 H         1 <1>         0.0707 
     17 H2          1.2649    1.0760    2.5904 H         1 <1>         0.0627 
     18 H3         -2.7535    0.3809   -0.1771 H         1 <1>         0.0792 
     19 H4          0.4303    3.6083    2.2986 H         1 <1>         0.2180 
     20 H5         -3.1974    3.3911    4.3066 H         1 <1>        -0.0045 
     21 H6         -2.7539    1.9548    3.2566 H         1 <1>        -0.0045 
     22 H7         -1.9670    5.4186    4.2766 H         1 <1>         0.0507 
     23 H8         -0.6367    5.6119    3.1259 H         1 <1>         0.0507 
     24 H9          0.8803    4.3213    4.7193 H         1 <1>         0.0546 
     25 H10        -0.5003    4.1381    5.8433 H         1 <1>         0.0546 
     26 H11         1.4344    5.3131    7.0396 H         1 <1>         0.2540 
@<TRIPOS>BOND
     1    2    1 1    
     2    2    3 ar   
     3    3    4 ar   
     4    4    5 ar   
     5    5    6 ar   
     6    6    7 ar   
     7    2    7 ar   
     8    5    8 1    
     9    8    9 1    
    10    9   10 2    
    11    9   11 1    
    12   11   12 1    
    13   12   13 1    
    14   13   14 2    
    15   13   15 1    
    16    3   16 1    
    17    4   17 1    
    18    7   18 1    
    19    8   19 1    
    20   10   20 1    
    21   10   21 1    
    22   11   22 1    
    23   11   23 1    
    24   12   24 1    
    25   12   25 1    
    26   15   26 1    
@<TRIPOS>SUBSTRUCTURE
     1 ****        2 TEMP              0 ****  ****    0 ROOT 
@<TRIPOS>NORMAL
@<TRIPOS>FF_PBC
FORCE_FIELD_SETUP_FEATURE Force Field Setup information
v1.0  0 0.000000 0.000000 0.000000 0.000000 0.000000 0.000000 NONE 0 0 0 0 1 0 0 0 0 0 0 0 0
