#	Name:			PISM00469
#	Creating user name:	baoopengkun
#	Creation time:		Sun Dec 16 01:35:13 2018

#	Modifying user name:	baoopengkun
#	Modification time:	Sun Dec 16 01:36:47 2018

@<TRIPOS>MOLECULE
PISM00469
   40    42     1     1     0
SMALL
GAST_HUCK


@<TRIPOS>ATOM
      1 O1         -3.8129   25.8704   38.3904 O.2       1 <1>        -0.3840 
      2 C2         -4.0987   24.6974   38.2136 C.2       1 <1>         0.1326 
      3 C3         -3.0650   23.7417   37.6856 C.3       1 <1>         0.0286 
      4 C4         -3.7276   22.6401   36.8080 C.3       1 <1>        -0.0057 
      5 C5         -4.8028   21.9005   37.6585 C.3       1 <1>         0.0102 
      6 C6         -5.8269   22.8657   38.2577 C.ar      1 <1>         0.0509 
      7 C7         -5.4886   24.1940   38.5267 C.ar      1 <1>         0.0714 
      8 C8         -2.6419   21.6219   36.3508 C.3       1 <1>        -0.0554 
      9 C9         -4.3858   23.2767   35.5471 C.3       1 <1>        -0.0554 
     10 C10        -6.4646   25.0265   39.0787 C.ar      1 <1>         0.0254 
     11 N11        -7.6939   24.5353   39.3340 N.ar      1 <1>        -0.2561 
     12 C12        -7.9953   23.2474   39.0709 C.ar      1 <1>         0.1879 
     13 N13        -7.0730   22.4276   38.5276 N.ar      1 <1>        -0.2482 
     14 N14        -9.2240   22.7605   39.3501 N.pl3     1 <1>        -0.2849 
     15 C15       -10.2518   23.6126   39.9440 C.3       1 <1>         0.0428 
     16 C16        -9.9631   23.7969   41.4504 C.3       1 <1>        -0.0294 
     17 C17       -10.3254   22.4087   42.0273 C.3       1 <1>        -0.0508 
     18 C18       -11.5346   21.9247   41.1781 C.3       1 <1>        -0.0508 
     19 C19       -11.6303   22.9095   39.9804 C.3       1 <1>        -0.0294 
     20 H1         -2.5552   23.2938   38.5522 H         1 <1>         0.0490 
     21 H2         -2.3188   24.2993   37.0980 H         1 <1>         0.0490 
     22 H3         -4.3326   21.3725   38.5023 H         1 <1>         0.0500 
     23 H4         -5.3360   21.1591   37.0433 H         1 <1>         0.0500 
     24 H5         -3.0922   20.8240   35.7405 H         1 <1>         0.0238 
     25 H6         -2.1512   21.1554   37.2189 H         1 <1>         0.0238 
     26 H7         -1.8695   22.1242   35.7482 H         1 <1>         0.0238 
     27 H8         -3.6307   23.8070   34.9467 H         1 <1>         0.0238 
     28 H9         -5.1732   23.9963   35.8158 H         1 <1>         0.0238 
     29 H10        -4.8403   22.4974   34.9163 H         1 <1>         0.0238 
     30 H11        -6.2422   26.0641   39.3031 H         1 <1>         0.0930 
     31 H12        -9.4338   21.7805   39.1108 H         1 <1>         0.1883 
     32 H13       -10.3015   24.5738   39.4028 H         1 <1>         0.0563 
     33 H14       -10.6356   24.5650   41.8679 H         1 <1>         0.0288 
     34 H15        -8.9211   24.0881   41.6586 H         1 <1>         0.0288 
     35 H16       -10.5453   22.4522   43.1068 H         1 <1>         0.0266 
     36 H17        -9.4656   21.7333   41.8762 H         1 <1>         0.0266 
     37 H18       -12.4691   21.9356   41.7640 H         1 <1>         0.0266 
     38 H19       -11.3653   20.8935   40.8246 H         1 <1>         0.0266 
     39 H20       -12.4050   23.6681   40.1869 H         1 <1>         0.0288 
     40 H21       -11.8778   22.4160   39.0267 H         1 <1>         0.0288 
@<TRIPOS>BOND
     1    2    1 2    
     2    2    3 1    
     3    3    4 1    
     4    4    5 1    
     5    5    6 1    
     6    6    7 ar   
     7    2    7 1    
     8    4    8 1    
     9    4    9 1    
    10    7   10 ar   
    11   10   11 ar   
    12   11   12 ar   
    13   12   13 ar   
    14    6   13 ar   
    15   12   14 1    
    16   14   15 1    
    17   15   16 1    
    18   16   17 1    
    19   17   18 1    
    20   18   19 1    
    21   15   19 1    
    22    3   20 1    
    23    3   21 1    
    24    5   22 1    
    25    5   23 1    
    26    8   24 1    
    27    8   25 1    
    28    8   26 1    
    29    9   27 1    
    30    9   28 1    
    31    9   29 1    
    32   10   30 1    
    33   14   31 1    
    34   15   32 1    
    35   16   33 1    
    36   16   34 1    
    37   17   35 1    
    38   17   36 1    
    39   18   37 1    
    40   18   38 1    
    41   19   39 1    
    42   19   40 1    
@<TRIPOS>SUBSTRUCTURE
     1 ****        2 TEMP              0 ****  ****    0 ROOT 
@<TRIPOS>NORMAL
@<TRIPOS>FF_PBC
FORCE_FIELD_SETUP_FEATURE Force Field Setup information
v1.0  0 0.000000 0.000000 0.000000 0.000000 0.000000 0.000000 NONE 0 0 0 0 1 0 0 0 0 0 0 0 0
