#	Name:			PISM00329
#	Creating user name:	baoopengkun
#	Creation time:		Sun Mar 31 15:30:04 2019

#	Modifying user name:	baoopengkun
#	Modification time:	Sun Mar 31 15:33:03 2019

@<TRIPOS>MOLECULE
PISM00329
   42    42     1     1     0
SMALL
GAST_HUCK


@<TRIPOS>ATOM
      1 C1         -3.5197    1.2060    1.0260 C.3       1 <1>         0.0394 
      2 C2         -2.0978    1.1294    0.3320 C.3       1 <1>        -0.0428 
      3 C3         -2.1366    1.9504   -0.9954 C.3       1 <1>         0.0184 
      4 C4         -2.4519    3.3764   -0.6877 C.2       1 <1>         0.1466 
      5 C5         -3.5058    3.6357    0.2895 C.2       1 <1>         0.0132 
      6 C6         -4.0249    2.6595    1.0481 C.2       1 <1>        -0.0666 
      7 O7         -1.8633    4.2966   -1.2336 O.2       1 <1>        -0.3649 
      8 C8         -0.9839    1.7684    1.2270 C.3       1 <1>        -0.0711 
      9 C9         -1.6748   -0.3041   -0.1276 C.3       1 <1>        -0.0711 
     10 C10        -5.2008    3.0105    1.9428 C.3       1 <1>        -0.0367 
     11 C11        -3.6510    0.6060    2.4305 C.2       1 <1>        -0.0859 
     12 C12        -2.8283   -0.1820    3.1396 C.2       1 <1>        -0.0144 
     13 C13        -3.1640   -0.6052    4.5151 C.2       1 <1>         0.0276 
     14 C14        -3.3460   -2.0774    4.7943 C.3       1 <1>        -0.0121 
     15 C15        -3.3072    0.2903    5.5026 C.2       1 <1>         0.0681 
     16 C16        -3.1088    1.7474    5.3762 C.2       1 <1>         0.2775 
     17 O17        -3.5025    2.4797    6.2698 O.2       1 <1>        -0.3439 
     18 O18        -2.4959    2.2569    4.3076 O.3       1 <1>        -0.2912 
     19 O19        -4.4978    0.6271    0.1311 O.3       1 <1>        -0.4533 
     20 C20        -4.9241   -0.7211    0.4206 C.3       1 <1>         0.0143 
     21 H1         -2.9192    1.5828   -1.6770 H         1 <1>         0.0475 
     22 H2         -1.1735    1.9100   -1.5297 H         1 <1>         0.0475 
     23 H3         -3.8506    4.6678    0.3435 H         1 <1>         0.0970 
     24 H4         -0.0660    1.9374    0.6442 H         1 <1>         0.0221 
     25 H5         -0.6936    1.1453    2.0773 H         1 <1>         0.0221 
     26 H6         -1.3065    2.7386    1.6314 H         1 <1>         0.0221 
     27 H7         -2.3464   -0.6711   -0.9184 H         1 <1>         0.0221 
     28 H8         -1.6700   -1.0534    0.6676 H         1 <1>         0.0221 
     29 H9         -0.6570   -0.2830   -0.5468 H         1 <1>         0.0221 
     30 H10        -5.6632    3.9718    1.6723 H         1 <1>         0.0416 
     31 H11        -4.8853    3.0905    2.9937 H         1 <1>         0.0416 
     32 H12        -5.9896    2.2502    1.8394 H         1 <1>         0.0416 
     33 H13        -4.5648    0.7991    2.9848 H         1 <1>         0.0537 
     34 H14        -1.8802   -0.5833    2.8089 H         1 <1>         0.1123 
     35 H15        -3.1663   -2.6786    3.8896 H         1 <1>         0.0431 
     36 H16        -4.3741   -2.2667    5.1383 H         1 <1>         0.0431 
     37 H17        -2.6405   -2.4010    5.5745 H         1 <1>         0.0431 
     38 H18        -3.5881   -0.0557    6.4971 H         1 <1>         0.1013 
     39 H19        -2.4330    3.2048    4.3526 H         1 <1>         0.2519 
     40 H20        -5.5087   -1.0626   -0.4463 H         1 <1>         0.0502 
     41 H21        -5.5876   -0.7434    1.2983 H         1 <1>         0.0502 
     42 H22        -4.0988   -1.4279    0.5793 H         1 <1>         0.0502 
@<TRIPOS>BOND
     1    2    1 1    
     2    2    3 1    
     3    3    4 1    
     4    4    5 1    
     5    5    6 2    
     6    1    6 1    
     7    4    7 2    
     8    2    8 1    
     9    2    9 1    
    10    6   10 1    
    11    1   11 1    
    12   11   12 2    
    13   12   13 1    
    14   13   14 1    
    15   13   15 2    
    16   15   16 1    
    17   16   17 2    
    18   16   18 1    
    19    1   19 1    
    20   19   20 1    
    21    3   21 1    
    22    3   22 1    
    23    5   23 1    
    24    8   24 1    
    25    8   25 1    
    26    8   26 1    
    27    9   27 1    
    28    9   28 1    
    29    9   29 1    
    30   10   30 1    
    31   10   31 1    
    32   10   32 1    
    33   11   33 1    
    34   12   34 1    
    35   14   35 1    
    36   14   36 1    
    37   14   37 1    
    38   15   38 1    
    39   18   39 1    
    40   20   40 1    
    41   20   41 1    
    42   20   42 1    
@<TRIPOS>SUBSTRUCTURE
     1 ****        2 TEMP              0 ****  ****    0 ROOT 
@<TRIPOS>NORMAL
@<TRIPOS>FF_PBC
FORCE_FIELD_SETUP_FEATURE Force Field Setup information
v1.0  0 0.000000 0.000000 0.000000 0.000000 0.000000 0.000000 NONE 0 0 0 0 1 0 0 0 0 0 0 0 0
