#	Name:			PISM00635
#	Creating user name:	baoopengkun
#	Creation time:		Mon Dec 10 11:51:41 2018

#	Modifying user name:	baoopengkun
#	Modification time:	Mon Dec 10 11:51:54 2018

@<TRIPOS>MOLECULE
PISM00635
   44    47     1     2     0
SMALL
GAST_HUCK


@<TRIPOS>ATOM
      1 C1          2.7304   -2.5424   -6.8878 C.ar      1 <1>        -0.0347 
      2 C2          2.5305   -1.3583   -6.1727 C.ar      1 <1>        -0.0322 
      3 C3          2.4513   -0.1383   -6.8506 C.ar      1 <1>        -0.0340 
      4 C4          2.5697   -0.1047   -8.2432 C.ar      1 <1>        -0.0322 
      5 C5          2.7688   -1.2900   -8.9571 C.ar      1 <1>        -0.0347 
      6 C6          2.8541   -2.5111   -8.2807 C.ar      1 <1>         0.0080 
      7 C7          3.0739   -3.8169   -9.0564 C.3       1 <1>         0.1933 
      8 C8          1.7004   -4.4336   -9.4028 C.3       1 <1>         0.1080 
      9 N9          0.8492   -4.4703   -8.2215 N.pl3     1 <1>        -0.1812 
     10 N10         0.7726   -5.4763   -7.3060 N.2       1 <1>        -0.1908 
     11 C11        -0.0768   -5.2466   -6.3749 C.2       1 <1>         0.0618 
     12 N12        -0.5774   -3.9613   -6.7778 N.2       1 <1>        -0.2870 
     13 C13        -0.0149   -3.5824   -7.8334 C.2       1 <1>         0.1270 
     14 O14         3.8886   -3.6264  -10.2211 O.3       1 <1>        -0.3747 
     15 C15         5.2339   -3.4318   -9.7584 C.3       1 <1>         0.1007 
     16 C16         5.2496   -4.2082   -8.4136 C.3       1 <1>         0.0675 
     17 O17         3.9172   -4.7299   -8.3423 O.3       1 <1>        -0.3804 
     18 C18         6.2848   -3.8740  -10.8159 C.3       1 <1>         0.0977 
     19 O19         6.0103   -5.1309  -11.4621 O.3       1 <1>        -0.3154 
     20 C20         5.9913   -6.2544  -10.6402 C.ar      1 <1>         0.0912 
     21 C21         4.7730   -6.8602  -10.3271 C.ar      1 <1>        -0.0331 
     22 C22         4.7345   -7.9483   -9.4507 C.ar      1 <1>        -0.0706 
     23 C23         5.9233   -8.4502   -8.9124 C.ar      1 <1>        -0.0729 
     24 C24         7.1479   -7.8704   -9.2580 C.ar      1 <1>        -0.0706 
     25 C25         7.1828   -6.7769  -10.1287 C.ar      1 <1>        -0.0331 
     26 H1          2.7847   -3.4906   -6.3608 H         1 <1>         0.0852 
     27 H2          2.4358   -1.3871   -5.0914 H         1 <1>         0.0698 
     28 H3          2.2974    0.7824   -6.2957 H         1 <1>         0.0856 
     29 H4          2.5067    0.8424   -8.7708 H         1 <1>         0.0698 
     30 H5          2.8558   -1.2615  -10.0388 H         1 <1>         0.0852 
     31 H6          1.8417   -5.4572   -9.7761 H         1 <1>         0.0597 
     32 H7          1.2292   -3.8332  -10.1956 H         1 <1>         0.0597 
     33 H8         -0.3451   -5.8599   -5.5160 H         1 <1>         0.0863 
     34 H9         -0.2330   -2.6398   -8.3343 H         1 <1>         0.1361 
     35 H10         5.3781   -2.3574   -9.5475 H         1 <1>         0.0636 
     36 H11         5.4106   -3.5273   -7.5616 H         1 <1>         0.0576 
     37 H12         5.9860   -5.0203   -8.3475 H         1 <1>         0.0576 
     38 H13         7.2916   -3.8714  -10.3698 H         1 <1>         0.0640 
     39 H14         6.2717   -3.1344  -11.6315 H         1 <1>         0.0640 
     40 H15         3.8609   -6.4765  -10.7681 H         1 <1>         0.0542 
     41 H16         3.7830   -8.4007   -9.1890 H         1 <1>         0.0589 
     42 H17         5.8951   -9.2916   -8.2267 H         1 <1>         0.0523 
     43 H18         8.0717   -8.2693   -8.8501 H         1 <1>         0.0589 
     44 H19         8.1319   -6.3328  -10.4084 H         1 <1>         0.0542 
@<TRIPOS>BOND
     1    2    1 ar   
     2    2    3 ar   
     3    3    4 ar   
     4    4    5 ar   
     5    5    6 ar   
     6    1    6 ar   
     7    6    7 1    
     8    7    8 1    
     9    8    9 1    
    10    9   10 1    
    11   10   11 2    
    12   11   12 1    
    13   12   13 2    
    14    9   13 1    
    15    7   14 1    
    16   14   15 1    
    17   15   16 1    
    18   16   17 1    
    19    7   17 1    
    20   15   18 1    
    21   18   19 1    
    22   19   20 1    
    23   20   21 ar   
    24   21   22 ar   
    25   22   23 ar   
    26   23   24 ar   
    27   24   25 ar   
    28   20   25 ar   
    29    1   26 1    
    30    2   27 1    
    31    3   28 1    
    32    4   29 1    
    33    5   30 1    
    34    8   31 1    
    35    8   32 1    
    36   11   33 1    
    37   13   34 1    
    38   15   35 1    
    39   16   36 1    
    40   16   37 1    
    41   18   38 1    
    42   18   39 1    
    43   21   40 1    
    44   22   41 1    
    45   23   42 1    
    46   24   43 1    
    47   25   44 1    
@<TRIPOS>SUBSTRUCTURE
     1 ****        2 TEMP              0 ****  ****    0 ROOT 
@<TRIPOS>NORMAL
@<TRIPOS>FF_PBC
FORCE_FIELD_SETUP_FEATURE Force Field Setup information
v1.0  0 0.000000 0.000000 0.000000 0.000000 0.000000 0.000000 NONE 0 0 0 0 1 0 0 0 0 0 0 0 0
@<TRIPOS>RENDERING_ATTRS
ANTIALIASED_LINES 
*
