#	Name:			PISM01107
#	Creating user name:	14062
#	Creation time:		Fri Jul 12 01:42:04 2019

#	Modifying user name:	14062
#	Modification time:	Fri Jul 12 01:42:08 2019

@<TRIPOS>MOLECULE
PISM01107
   69    73     1     1     0
SMALL
GAST_HUCK


@<TRIPOS>ATOM
      1 C1         -3.0065    6.1144    0.8706 C.ar      1 <1>        -0.0603 
      2 C2         -2.3529    6.6089   -0.2618 C.ar      1 <1>        -0.0686 
      3 C3         -2.0461    5.7523   -1.3225 C.ar      1 <1>        -0.0687 
      4 C4         -2.4002    4.4025   -1.2520 C.ar      1 <1>        -0.0686 
      5 C5         -3.0649    3.9129   -0.1241 C.ar      1 <1>        -0.0603 
      6 C6         -3.3652    4.7639    0.9462 C.ar      1 <1>        -0.0405 
      7 H1         -3.2310    6.7849    1.6933 H         1 <1>         0.0557 
      8 O8         -2.2145    2.7275    2.4449 O.3       1 <1>        -0.2848 
      9 C9         -1.1859    2.2045    3.1219 C.2       1 <1>         0.2225 
     10 C10        -3.0061    3.6789    3.1780 C.3       1 <1>         0.0836 
     11 C11        -0.2473    1.3172    2.4047 C.2       1 <1>         0.0458 
     12 C12         0.6870    0.5506    2.9936 C.2       1 <1>         0.0461 
     13 C13         0.9059    0.5185    4.4855 C.3       1 <1>        -0.0046 
     14 N14         1.4768   -0.2472    2.2661 N.3       1 <1>        -0.2060 
     15 C15         1.8750    0.2798    1.1058 C.2       1 <1>         0.0495 
     16 C16         1.0395    1.0158    0.3600 C.2       1 <1>         0.0179 
     17 C17        -0.3432    1.2826    0.8975 C.3       1 <1>         0.0220 
     18 C18         3.2947   -0.0000    0.6810 C.3       1 <1>         0.0218 
     19 C19         3.8207    1.1100   -0.2652 C.3       1 <1>         0.0214 
     20 C20         2.8593    1.2916   -1.4654 C.3       1 <1>         0.0273 
     21 O21         0.7230    2.2551   -1.6045 O.2       1 <1>        -0.4113 
     22 C22         5.2594    0.8179   -0.7337 C.ar      1 <1>        -0.0350 
     23 O23        -1.0229    2.4607    4.3043 O.2       1 <1>        -0.3891 
     24 C24        -1.3615    0.2518    0.3806 C.ar      1 <1>        -0.0564 
     25 C25        -1.8550    0.3801   -0.9233 C.ar      1 <1>        -0.0395 
     26 C26        -2.7482   -0.5585   -1.4478 C.ar      1 <1>         0.1122 
     27 C27        -3.1884   -1.6244   -0.6564 C.ar      1 <1>         0.1082 
     28 C28        -2.7225   -1.7440    0.6542 C.ar      1 <1>        -0.0489 
     29 C29        -1.8229   -0.8080    1.1732 C.ar      1 <1>        -0.0797 
     30 O30        -4.0865   -2.5682   -1.1622 O.3       1 <1>        -0.3419 
     31 O31        -3.2118   -0.4409   -2.7605 O.3       1 <1>        -0.3268 
     32 C32        -2.2178   -0.6781   -3.7713 C.3       1 <1>         0.0567 
     33 C33         1.4771    1.5648   -0.9401 C.2       1 <1>         0.0957 
     34 C34         6.3041    1.6916   -0.4040 C.ar      1 <1>        -0.0591 
     35 C35         7.6106    1.4330   -0.8286 C.ar      1 <1>        -0.0546 
     36 C36         7.8869    0.2940   -1.5883 C.ar      1 <1>         0.0330 
     37 C37         6.8522   -0.5826   -1.9220 C.ar      1 <1>        -0.0546 
     38 C38         5.5465   -0.3215   -1.4963 C.ar      1 <1>        -0.0591 
     39 Cl39        9.5234   -0.0355   -2.1200 Cl        1 <1>        -0.0771 
     40 C40        -4.0728    4.2154    2.1941 C.3       1 <1>         0.0085 
     41 H2         -2.0817    7.6585   -0.3181 H         1 <1>         0.0599 
     42 H3         -1.5334    6.1345   -2.1996 H         1 <1>         0.0559 
     43 H4         -2.1576    3.7347   -2.0728 H         1 <1>         0.0599 
     44 H5         -3.3421    2.8646   -0.0824 H         1 <1>         0.0557 
     45 H6         -2.3791    4.5191    3.5222 H         1 <1>         0.0632 
     46 H7         -3.4915    3.2076    4.0493 H         1 <1>         0.0632 
     47 H8          1.6504   -0.2478    4.7490 H         1 <1>         0.0461 
     48 H9         -0.0317    0.2771    5.0085 H         1 <1>         0.0461 
     49 H10         1.2796    1.4948    4.8285 H         1 <1>         0.0461 
     50 H11         0.9941   -1.2003    2.0939 H         1 <1>         0.1900 
     51 H12        -0.6457    2.2839    0.5507 H         1 <1>         0.0524 
     52 H13         3.3129   -0.9889    0.2004 H         1 <1>         0.0524 
     53 H14         3.9410   -0.0368    1.5729 H         1 <1>         0.0524 
     54 H15         3.8029    2.0548    0.3064 H         1 <1>         0.0515 
     55 H16         2.8086    0.3980   -2.1043 H         1 <1>         0.0497 
     56 H17         3.2027    2.1421   -2.0769 H         1 <1>         0.0497 
     57 H18        -1.5516    1.2170   -1.5395 H         1 <1>         0.0444 
     58 H19        -3.0658   -2.5707    1.2677 H         1 <1>         0.0491 
     59 H20        -1.4982   -0.9224    2.2008 H         1 <1>         0.0431 
     60 H21        -4.3745   -2.3415   -2.0411 H         1 <1>         0.2418 
     61 H22        -2.7052   -0.5972   -4.7539 H         1 <1>         0.0573 
     62 H23        -1.7969   -1.6904   -3.6686 H         1 <1>         0.0573 
     63 H24        -1.4032    0.0606   -3.7239 H         1 <1>         0.0573 
     64 H25         6.1127    2.5826    0.1854 H         1 <1>         0.0557 
     65 H26         8.4134    2.1160   -0.5694 H         1 <1>         0.0606 
     66 H27         7.0661   -1.4674   -2.5129 H         1 <1>         0.0606 
     67 H28         4.7618   -1.0181   -1.7689 H         1 <1>         0.0557 
     68 H29        -4.6793    4.9994    2.6747 H         1 <1>         0.0452 
     69 H30        -4.7486    3.3953    1.9043 H         1 <1>         0.0452 
@<TRIPOS>BOND
     1    1    2 ar   
     2    2    3 ar   
     3    4    3 ar   
     4    5    4 ar   
     5    6    5 ar   
     6    6    1 ar   
     7    1    7 1    
     8    2   41 1    
     9    8    9 1    
    10    9   11 1    
    11   10    8 1    
    12   11   12 2    
    13   12   13 1    
    14   12   14 1    
    15   14   15 1    
    16   16   15 2    
    17   17   16 1    
    18   11   17 1    
    19   15   18 1    
    20   18   19 1    
    21   20   19 1    
    22   33   20 1    
    23   33   21 2    
    24    9   23 2    
    25   17   24 1    
    26   24   25 ar   
    27   25   26 ar   
    28   26   27 ar   
    29   28   27 ar   
    30   29   28 ar   
    31   24   29 ar   
    32   27   30 1    
    33   26   31 1    
    34   31   32 1    
    35   16   33 1    
    36   19   22 1    
    37   22   34 ar   
    38   34   35 ar   
    39   35   36 ar   
    40   37   36 ar   
    41   38   37 ar   
    42   22   38 ar   
    43   36   39 1    
    44   40   10 1    
    45   40    6 1    
    46    3   42 1    
    47    4   43 1    
    48    5   44 1    
    49   10   45 1    
    50   10   46 1    
    51   13   47 1    
    52   13   48 1    
    53   13   49 1    
    54   14   50 1    
    55   17   51 1    
    56   18   52 1    
    57   18   53 1    
    58   19   54 1    
    59   20   55 1    
    60   20   56 1    
    61   25   57 1    
    62   28   58 1    
    63   29   59 1    
    64   30   60 1    
    65   32   61 1    
    66   32   62 1    
    67   32   63 1    
    68   34   64 1    
    69   35   65 1    
    70   37   66 1    
    71   38   67 1    
    72   40   68 1    
    73   40   69 1    
@<TRIPOS>SUBSTRUCTURE
     1 ****       11 TEMP              0 ****  ****    0 ROOT 
@<TRIPOS>NORMAL
@<TRIPOS>FF_PBC
FORCE_FIELD_SETUP_FEATURE Force Field Setup information
v1.0  0 0.000000 0.000000 0.000000 0.000000 0.000000 0.000000 NONE 0 0 0 0 1 0 0 0 0 0 0 0 0
