#	Name:			PISM00931
#	Creating user name:	baoopengkun
#	Creation time:		Wed Feb 27 16:18:15 2019

#	Modifying user name:	baoopengkun
#	Modification time:	Wed Feb 27 16:19:37 2019

@<TRIPOS>MOLECULE
PISM00931
   19    19     1     2     0
SMALL
GAST_HUCK


@<TRIPOS>ATOM
      1 O1        -15.2632    5.0566   15.2138 O.2       1 <1>        -0.3823 
      2 C2        -15.8014    3.9629   15.2282 C.2       1 <1>         0.2292 
      3 C3        -17.0613    3.7155   15.9240 C.2       1 <1>         0.0167 
      4 C4        -17.2737    2.4202   15.6950 C.2       1 <1>        -0.0169 
      5 C5        -17.9016    4.6906   16.7043 C.3       1 <1>        -0.0422 
      6 C6        -16.1705    1.8107   14.8566 C.3       1 <1>         0.1192 
      7 O7        -15.2710    2.9123   14.6080 O.3       1 <1>        -0.2658 
      8 C8        -18.4269    1.5704   16.1666 C.3       1 <1>        -0.0251 
      9 C9        -16.6819    1.2553   13.5065 C.3       1 <1>        -0.0221 
     10 H1        -17.4338    5.6865   16.6972 H         1 <1>         0.0303 
     11 H2        -17.9982    4.3520   17.7472 H         1 <1>         0.0303 
     12 H3        -18.9017    4.7645   16.2520 H         1 <1>         0.0303 
     13 H4        -15.6354    1.0323   15.4263 H         1 <1>         0.0845 
     14 H5        -19.0662    2.1244   16.8697 H         1 <1>         0.0428 
     15 H6        -18.0427    0.6739   16.6763 H         1 <1>         0.0428 
     16 H7        -19.0443    1.2602   15.3102 H         1 <1>         0.0428 
     17 H8        -15.8281    0.9247   12.8951 H         1 <1>         0.0285 
     18 H9        -17.2257    2.0407   12.9593 H         1 <1>         0.0285 
     19 H10       -17.3517    0.3972   13.6672 H         1 <1>         0.0285 
@<TRIPOS>BOND
     1    2    1 2    
     2    2    3 1    
     3    3    4 2    
     4    3    5 1    
     5    4    6 1    
     6    6    7 1    
     7    2    7 1    
     8    4    8 1    
     9    6    9 1    
    10    5   10 1    
    11    5   11 1    
    12    5   12 1    
    13    6   13 1    
    14    8   14 1    
    15    8   15 1    
    16    8   16 1    
    17    9   17 1    
    18    9   18 1    
    19    9   19 1    
@<TRIPOS>SUBSTRUCTURE
     1 ****        2 TEMP              0 ****  ****    0 ROOT 
@<TRIPOS>NORMAL
@<TRIPOS>FF_PBC
FORCE_FIELD_SETUP_FEATURE Force Field Setup information
v1.0  0 0.000000 0.000000 0.000000 0.000000 0.000000 0.000000 NONE 0 0 0 0 1 0 0 0 0 0 0 0 0
@<TRIPOS>RENDERING_ATTRS
ANTIALIASED_LINES 
*
