#	Name:			PISM00381
#	Creating user name:	baoopengkun
#	Creation time:		Sun Mar 31 22:04:51 2019

#	Modifying user name:	baoopengkun
#	Modification time:	Sun Mar 31 22:07:42 2019

@<TRIPOS>MOLECULE
PISM00381
   91    92     1     1     0
SMALL
GAST_HUCK


@<TRIPOS>ATOM
      1 C1         10.2430   -0.2256   -4.6118 C.3       1 <1>        -0.0439 
      2 C2         10.9860    0.7973   -3.6993 C.3       1 <1>         0.0170 
      3 C3         10.5816    2.1953   -4.0500 C.2       1 <1>         0.1401 
      4 C4         10.8415    2.5943   -5.4769 C.ar      1 <1>         0.0312 
      5 C5         10.9819    1.5633   -6.4090 C.ar      1 <1>        -0.0611 
      6 C6         10.2331    0.2307   -6.1336 C.3       1 <1>         0.0299 
      7 C7         10.9569   -1.6048   -4.4519 C.3       1 <1>        -0.0709 
      8 C8          8.8071   -0.3914   -4.0113 C.3       1 <1>        -0.0709 
      9 O9         10.1078    2.9717   -3.2386 O.2       1 <1>        -0.3711 
     10 C10        11.7789    1.8408   -7.5306 C.ar      1 <1>        -0.0576 
     11 C11        12.0661    3.1690   -7.8654 C.ar      1 <1>        -0.0074 
     12 C12        11.5821    4.2203   -7.0780 C.ar      1 <1>         0.1212 
     13 C13        10.9691    3.9310   -5.8572 C.ar      1 <1>         0.0066 
     14 O14        10.7710   -0.8212   -6.9621 O.3       1 <1>        -0.4653 
     15 C15         8.8070    0.5213   -6.5862 C.2       1 <1>        -0.0894 
     16 C16         8.0099   -0.3841   -7.1727 C.2       1 <1>        -0.0172 
     17 C17         6.6326   -0.1229   -7.6501 C.2       1 <1>         0.0244 
     18 C18         6.3419    1.1765   -8.3695 C.3       1 <1>        -0.0129 
     19 C19         5.6278   -0.9975   -7.4850 C.2       1 <1>         0.0649 
     20 C20         5.6973   -2.3066   -6.7945 C.2       1 <1>         0.2748 
     21 O21         6.7076   -2.6601   -6.2127 O.2       1 <1>        -0.3457 
     22 O22         4.6603   -3.1479   -6.7696 O.3       1 <1>        -0.2917 
     23 O23        11.7195    5.5419   -7.5030 O.3       1 <1>        -0.3008 
     24 C24        10.5641    6.1060   -8.1527 C.3       1 <1>         0.0765 
     25 C25        10.1484    5.2391   -9.3685 C.3       1 <1>        -0.0240 
     26 C26         9.0877    5.9268  -10.2722 C.3       1 <1>        -0.0505 
     27 C27         8.6212    4.9233  -11.3608 C.3       1 <1>        -0.0530 
     28 C28         7.6784    5.5346  -12.4344 C.3       1 <1>        -0.0531 
     29 C29         7.1999    4.3948  -13.3762 C.3       1 <1>        -0.0531 
     30 C30         6.3835    4.8816  -14.6043 C.3       1 <1>        -0.0531 
     31 C31         5.9356    3.6433  -15.4293 C.3       1 <1>        -0.0531 
     32 C32         5.1798    4.0120  -16.7320 C.3       1 <1>        -0.0531 
     33 C33         4.7719    2.7117  -17.4767 C.3       1 <1>        -0.0531 
     34 C34         3.9840    3.0097  -18.7785 C.3       1 <1>        -0.0531 
     35 C35         3.6107    1.6845  -19.4962 C.3       1 <1>        -0.0531 
     36 C36         2.8040    1.9347  -20.7985 C.3       1 <1>        -0.0531 
     37 C37         2.4511    0.5899  -21.4958 C.3       1 <1>        -0.0533 
     38 C38         1.6818    0.8201  -22.8244 C.3       1 <1>        -0.0559 
     39 C39         1.3079   -0.5176  -23.5154 C.3       1 <1>        -0.0653 
     40 H1         12.0689    0.7287   -3.8780 H         1 <1>         0.0477 
     41 H2         10.8131    0.6090   -2.6282 H         1 <1>         0.0477 
     42 H3         11.9833   -1.5533   -4.8468 H         1 <1>         0.0222 
     43 H4         10.4223   -2.3940   -5.0037 H         1 <1>         0.0222 
     44 H5         11.0029   -1.9001   -3.3912 H         1 <1>         0.0222 
     45 H6          8.2199   -1.1372   -4.5668 H         1 <1>         0.0222 
     46 H7          8.2601    0.5629   -4.0215 H         1 <1>         0.0222 
     47 H8          8.8601   -0.7319   -2.9655 H         1 <1>         0.0222 
     48 H9         12.1858    1.0463   -8.1487 H         1 <1>         0.0743 
     49 H10        12.6651    3.3938   -8.7446 H         1 <1>         0.0645 
     50 H11        10.6176    4.7274   -5.2126 H         1 <1>         0.0670 
     51 H12        10.6878   -0.6656   -7.8978 H         1 <1>         0.1810 
     52 H13         8.4142    1.5222   -6.3975 H         1 <1>         0.0514 
     53 H14         8.4032   -1.3882   -7.3110 H         1 <1>         0.1108 
     54 H15         6.0346    0.9543   -9.4027 H         1 <1>         0.0430 
     55 H16         7.2178    1.8393   -8.4261 H         1 <1>         0.0430 
     56 H17         5.5268    1.7200   -7.8660 H         1 <1>         0.0430 
     57 H18         4.6576   -0.7233   -7.8932 H         1 <1>         0.0983 
     58 H19         3.8789   -2.8568   -7.2220 H         1 <1>         0.2518 
     59 H20        10.8415    7.1157   -8.4932 H         1 <1>         0.0626 
     60 H21         9.7254    6.1963   -7.4436 H         1 <1>         0.0626 
     61 H22         9.7466    4.2797   -9.0004 H         1 <1>         0.0292 
     62 H23        11.0472    5.0308   -9.9731 H         1 <1>         0.0292 
     63 H24         9.5294    6.8205  -10.7421 H         1 <1>         0.0266 
     64 H25         8.2245    6.2430   -9.6653 H         1 <1>         0.0266 
     65 H26         8.1029    4.0878  -10.8613 H         1 <1>         0.0265 
     66 H27         9.5096    4.5191  -11.8729 H         1 <1>         0.0265 
     67 H28         8.2208    6.2992  -13.0147 H         1 <1>         0.0265 
     68 H29         6.8080    6.0123  -11.9563 H         1 <1>         0.0265 
     69 H30         6.5818    3.6932  -12.7915 H         1 <1>         0.0265 
     70 H31         8.0796    3.8454  -13.7490 H         1 <1>         0.0265 
     71 H32         7.0097    5.5398  -15.2301 H         1 <1>         0.0265 
     72 H33         5.5000    5.4524  -14.2743 H         1 <1>         0.0265 
     73 H34         5.2794    3.0172  -14.8009 H         1 <1>         0.0265 
     74 H35         6.8233    3.0468  -15.6987 H         1 <1>         0.0265 
     75 H36         5.8304    4.6217  -17.3807 H         1 <1>         0.0265 
     76 H37         4.2817    4.6020  -16.4872 H         1 <1>         0.0265 
     77 H38         4.1460    2.0930  -16.8128 H         1 <1>         0.0265 
     78 H39         5.6786    2.1365  -17.7257 H         1 <1>         0.0265 
     79 H40         4.6011    3.6331  -19.4458 H         1 <1>         0.0265 
     80 H41         3.0680    3.5698  -18.5306 H         1 <1>         0.0265 
     81 H42         3.0101    1.0587  -18.8155 H         1 <1>         0.0265 
     82 H43         4.5344    1.1359  -19.7429 H         1 <1>         0.0265 
     83 H44         3.4027    2.5611  -21.4805 H         1 <1>         0.0265 
     84 H45         1.8770    2.4787  -20.5525 H         1 <1>         0.0265 
     85 H46         1.8324   -0.0179  -20.8144 H         1 <1>         0.0265 
     86 H47         3.3784    0.0319  -21.7072 H         1 <1>         0.0265 
     87 H48         2.3067    1.4135  -23.5111 H         1 <1>         0.0263 
     88 H49         0.7611    1.3883  -22.6190 H         1 <1>         0.0263 
     89 H50         2.2150   -1.0862  -23.7722 H         1 <1>         0.0230 
     90 H51         0.7472   -0.3169  -24.4419 H         1 <1>         0.0230 
     91 H52         0.6787   -1.1326  -22.8532 H         1 <1>         0.0230 
@<TRIPOS>BOND
     1    2    1 1    
     2    2    3 1    
     3    3    4 1    
     4    4    5 ar   
     5    5    6 1    
     6    1    6 1    
     7    1    7 1    
     8    1    8 1    
     9    3    9 2    
    10    5   10 ar   
    11   10   11 ar   
    12   11   12 ar   
    13   12   13 ar   
    14    4   13 ar   
    15    6   14 1    
    16    6   15 1    
    17   15   16 2    
    18   16   17 1    
    19   17   18 1    
    20   17   19 2    
    21   19   20 1    
    22   20   21 2    
    23   20   22 1    
    24   12   23 1    
    25   23   24 1    
    26   24   25 1    
    27   25   26 1    
    28   26   27 1    
    29   27   28 1    
    30   28   29 1    
    31   29   30 1    
    32   30   31 1    
    33   31   32 1    
    34   32   33 1    
    35   33   34 1    
    36   34   35 1    
    37   35   36 1    
    38   36   37 1    
    39   37   38 1    
    40   38   39 1    
    41    2   40 1    
    42    2   41 1    
    43    7   42 1    
    44    7   43 1    
    45    7   44 1    
    46    8   45 1    
    47    8   46 1    
    48    8   47 1    
    49   10   48 1    
    50   11   49 1    
    51   13   50 1    
    52   14   51 1    
    53   15   52 1    
    54   16   53 1    
    55   18   54 1    
    56   18   55 1    
    57   18   56 1    
    58   19   57 1    
    59   22   58 1    
    60   24   59 1    
    61   24   60 1    
    62   25   61 1    
    63   25   62 1    
    64   26   63 1    
    65   26   64 1    
    66   27   65 1    
    67   27   66 1    
    68   28   67 1    
    69   28   68 1    
    70   29   69 1    
    71   29   70 1    
    72   30   71 1    
    73   30   72 1    
    74   31   73 1    
    75   31   74 1    
    76   32   75 1    
    77   32   76 1    
    78   33   77 1    
    79   33   78 1    
    80   34   79 1    
    81   34   80 1    
    82   35   81 1    
    83   35   82 1    
    84   36   83 1    
    85   36   84 1    
    86   37   85 1    
    87   37   86 1    
    88   38   87 1    
    89   38   88 1    
    90   39   89 1    
    91   39   90 1    
    92   39   91 1    
@<TRIPOS>SUBSTRUCTURE
     1 ****        2 TEMP              0 ****  ****    0 ROOT 
@<TRIPOS>NORMAL
@<TRIPOS>FF_PBC
FORCE_FIELD_SETUP_FEATURE Force Field Setup information
v1.0  0 0.000000 0.000000 0.000000 0.000000 0.000000 0.000000 NONE 0 0 0 0 1 0 0 0 0 0 0 0 0
