#	Name:			PISM01043
#	Creating user name:	malab
#	Creation time:		Tue Jul 02 22:33:58 2019

#	Modifying user name:	malab
#	Modification time:	Tue Jul 02 22:35:27 2019

@<TRIPOS>MOLECULE
PISM01043
   33    35     1     1     0
SMALL
GAST_HUCK


@<TRIPOS>ATOM
      1 S1         -5.1023    6.1488   -2.0752 S.3       1 <1>        -0.0542 
      2 C2         -4.9629    7.6720   -2.9939 C.2       1 <1>         0.2260 
      3 N3         -5.3396    8.8059   -2.5578 N.2       1 <1>        -0.2526 
      4 N4         -5.0254    9.7058   -3.6181 N.2       1 <1>        -0.2613 
      5 C5         -4.5257    8.9530   -4.5128 C.2       1 <1>         0.1845 
      6 N6         -4.4516    7.7015   -4.1839 N.pl3     1 <1>        -0.0975 
      7 N7         -3.9541    6.6514   -4.8773 N.2       1 <1>        -0.1595 
      8 C8         -2.7714    6.6631   -5.3481 C.2       1 <1>         0.0478 
      9 C9         -2.2731    5.4741   -6.1407 C.ar      1 <1>         0.0315 
     10 C10        -3.0815    4.3458   -6.3513 C.ar      1 <1>         0.1044 
     11 C11        -2.5735    3.2567   -7.0650 C.ar      1 <1>        -0.0280 
     12 C12        -1.2772    3.2867   -7.5859 C.ar      1 <1>        -0.0674 
     13 C13        -0.4796    4.4169   -7.3923 C.ar      1 <1>        -0.0688 
     14 C14        -0.9780    5.5055   -6.6713 C.ar      1 <1>        -0.0566 
     15 O15        -4.3914    4.2745   -5.8633 O.3       1 <1>        -0.3274 
     16 C16        -4.0689    9.5266   -5.8372 C.ar      1 <1>         0.0324 
     17 C17        -3.5645   10.8308   -5.8790 C.ar      1 <1>        -0.0477 
     18 C18        -3.0806   11.3637   -7.0774 C.ar      1 <1>        -0.0595 
     19 C19        -3.1052   10.5945   -8.2440 C.ar      1 <1>        -0.0604 
     20 C20        -3.6405    9.3038   -8.2151 C.ar      1 <1>        -0.0595 
     21 C21        -4.1452    8.7824   -7.0203 C.ar      1 <1>        -0.0477 
     22 H1         -4.6590    5.5349   -2.7380 H         1 <1>         0.1319 
     23 H2         -2.1206    7.5227   -5.1834 H         1 <1>         0.0915 
     24 H3         -3.1969    2.3812   -7.2140 H         1 <1>         0.0550 
     25 H4         -0.8918    2.4353   -8.1390 H         1 <1>         0.0614 
     26 H5          0.5260    4.4488   -7.8013 H         1 <1>         0.0535 
     27 H6         -0.3487    6.3781   -6.5261 H         1 <1>         0.0618 
     28 H7         -4.7397    5.1027   -5.5512 H         1 <1>         0.2515 
     29 H8         -3.5432   11.4331   -4.9759 H         1 <1>         0.0639 
     30 H9         -2.6845   12.3745   -7.1016 H         1 <1>         0.0621 
     31 H10        -2.7114   10.9997   -9.1712 H         1 <1>         0.0628 
     32 H11        -3.6673    8.7073   -9.1221 H         1 <1>         0.0621 
     33 H12        -4.6050    7.8001   -7.0236 H         1 <1>         0.0639 
@<TRIPOS>BOND
     1    2    1 1    
     2    2    3 2    
     3    3    4 1    
     4    4    5 2    
     5    5    6 1    
     6    2    6 1    
     7    6    7 1    
     8    7    8 2    
     9    8    9 1    
    10    9   10 ar   
    11   10   11 ar   
    12   11   12 ar   
    13   12   13 ar   
    14   13   14 ar   
    15    9   14 ar   
    16   10   15 1    
    17    5   16 1    
    18   16   17 ar   
    19   17   18 ar   
    20   18   19 ar   
    21   19   20 ar   
    22   20   21 ar   
    23   16   21 ar   
    24    1   22 1    
    25    8   23 1    
    26   11   24 1    
    27   12   25 1    
    28   13   26 1    
    29   14   27 1    
    30   15   28 1    
    31   17   29 1    
    32   18   30 1    
    33   19   31 1    
    34   20   32 1    
    35   21   33 1    
@<TRIPOS>SUBSTRUCTURE
     1 ****        2 TEMP              0 ****  ****    0 ROOT 
@<TRIPOS>NORMAL
@<TRIPOS>FF_PBC
FORCE_FIELD_SETUP_FEATURE Force Field Setup information
v1.0  0 0.000000 0.000000 0.000000 0.000000 0.000000 0.000000 NONE 0 0 0 0 1 0 0 0 0 0 0 0 0
