#	Name:			PISM00153
#	Creating user name:	14062
#	Creation time:		Wed Jun 19 15:25:24 2019

#	Modifying user name:	14062
#	Modification time:	Wed Jun 19 15:28:42 2019

@<TRIPOS>MOLECULE
PISM00153
   28    29     1     1     0
SMALL
GAST_HUCK


@<TRIPOS>ATOM
      1 C1          0.0368   -5.9294   -0.6312 C.2       1 BENZYL      0.0164 
      2 N2          0.3293   -5.7079    0.6259 N.pl3     1 BENZYL     -0.2891 
      3 C2          1.1534   -6.6517    1.1210 C.ar      1 BENZYL      0.0603 
      4 C3          1.4380   -7.5734    0.1328 C.ar      1 BENZYL     -0.0216 
      5 C4          2.2709   -8.6687    0.3550 C.ar      1 BENZYL     -0.0747 
      6 C5          2.8139   -8.7972    1.6403 C.ar      1 BENZYL     -0.0792 
      7 C6          2.5261   -7.8622    2.6480 C.ar      1 BENZYL     -0.0768 
      8 C7          1.6861   -6.7668    2.4046 C.ar      1 BENZYL     -0.0443 
      9 C9          0.6589   -7.0477   -1.0458 C.2       1 BENZYL     -0.0461 
     10 C10         0.6340   -7.7097   -2.4001 C.3       1 BENZYL     -0.0343 
     11 C11        -1.0735   -6.9709   -5.8202 C.2       1 BENZYL      0.2313 
     12 O12        -0.5944   -6.4638   -6.8217 O.2       1 BENZYL     -0.3706 
     13 O13        -2.3763   -6.9072   -5.5463 O.3       1 BENZYL     -0.2927 
     14 C14        -0.2430   -6.9731   -3.4470 C.3       1 BENZYL     -0.0304 
     15 C15        -0.2276   -7.7060   -4.8147 C.3       1 BENZYL      0.0496 
     16 H1         -0.6130   -5.2947   -1.2341 H         1 BENZYL      0.0795 
     17 H2         -0.0261   -4.9093    1.1730 H         1 BENZYL      0.2216 
     18 H3          2.4841   -9.3828   -0.4330 H         1 BENZYL      0.0540 
     19 H4          3.4686   -9.6351    1.8594 H         1 BENZYL      0.0510 
     20 H5          2.9617   -7.9889    3.6343 H         1 BENZYL      0.0530 
     21 H6          1.4579   -6.0395    3.1759 H         1 BENZYL      0.0541 
     22 H7          0.2590   -8.7361   -2.2624 H         1 BENZYL      0.0351 
     23 H8          1.6726   -7.7662   -2.7625 H         1 BENZYL      0.0351 
     24 H9         -2.8423   -6.4284   -6.2229 H         1 BENZYL      0.2539 
     25 H10         0.1368   -5.9475   -3.5888 H         1 BENZYL      0.0305 
     26 H11        -1.2808   -6.9172   -3.0785 H         1 BENZYL      0.0305 
     27 H12        -0.6263   -8.7264   -4.7059 H         1 BENZYL      0.0519 
     28 H13         0.8042   -7.7752   -5.1942 H         1 BENZYL      0.0519 
@<TRIPOS>BOND
     1    2    3 1    
     2    4    3 ar   
     3    3    8 ar   
     4    8    7 ar   
     5    6    7 ar   
     6    5    6 ar   
     7    4    5 ar   
     8    1    2 1    
     9    9    4 1    
    10    9    1 2    
    11   10    9 1    
    12   14   10 1    
    13   11   12 2    
    14   11   13 1    
    15   15   14 1    
    16   15   11 1    
    17    1   16 1    
    18    2   17 1    
    19    5   18 1    
    20    6   19 1    
    21    7   20 1    
    22    8   21 1    
    23   10   22 1    
    24   10   23 1    
    25   13   24 1    
    26   14   25 1    
    27   14   26 1    
    28   15   27 1    
    29   15   28 1    
@<TRIPOS>SUBSTRUCTURE
     1 BENZYL      2 PERM              0 ****  ****    0 ROOT 
@<TRIPOS>NORMAL
@<TRIPOS>FF_PBC
FORCE_FIELD_SETUP_FEATURE Force Field Setup information
v1.0  0 0.000000 0.000000 0.000000 0.000000 0.000000 0.000000 NONE 0 0 0 0 1 0 0 0 0 0 0 0 0
