#	Name:			PISM01021.1
#	Creating user name:	malab
#	Creation time:		Mon Jul 01 22:38:37 2019

#	Modifying user name:	malab
#	Modification time:	Mon Jul 01 22:49:44 2019

@<TRIPOS>MOLECULE
PISM01021.1
   54    58     1     1     0
SMALL
GAST_HUCK


@<TRIPOS>ATOM
      1 O1          0.4770   11.3919   30.4960 O.2       1 <1>        -0.4441 
      2 C2          1.4822   10.9481   31.0255 C.2       1 <1>         0.0666 
      3 C3          1.3842   10.2090   32.2909 C.2       1 <1>        -0.0373 
      4 C4          2.4846    9.6976   32.8531 C.2       1 <1>        -0.0500 
      5 C5          3.8134    9.8550   32.2154 C.2       1 <1>         0.0395 
      6 C6          3.9048   10.6421   30.9619 C.2       1 <1>         0.1275 
      7 C7          2.7996   11.1507   30.4068 C.2       1 <1>        -0.0198 
      8 C8          4.9215    9.3147   32.7389 C.2       1 <1>         0.0253 
      9 C9          4.8702    8.4835   34.0024 C.ar      1 <1>         0.0247 
     10 C10         4.2257    7.2431   33.9448 C.ar      1 <1>        -0.0385 
     11 C11         4.1445    6.4342   35.0808 C.ar      1 <1>        -0.0494 
     12 C12         4.7184    6.8657   36.2787 C.ar      1 <1>        -0.0494 
     13 C13         5.3679    8.1021   36.3350 C.ar      1 <1>        -0.0332 
     14 C14         5.4477    8.9222   35.2024 C.ar      1 <1>         0.0787 
     15 C15         6.2451    9.5496   32.0480 C.ar      1 <1>         0.0432 
     16 C16         6.2640   10.3539   30.9052 C.ar      1 <1>         0.1462 
     17 O17         5.0826   10.8577   30.3624 O.3       1 <1>        -0.2389 
     18 C18         7.4378    8.9972   32.5298 C.ar      1 <1>        -0.0500 
     19 C19         8.6556    9.3433   31.9385 C.ar      1 <1>        -0.0274 
     20 C20         8.6790   10.2076   30.8422 C.ar      1 <1>         0.1052 
     21 C21         7.4799   10.6683   30.2940 C.ar      1 <1>         0.0170 
     22 O22         9.8995   10.6126   30.3081 O.3       1 <1>        -0.2645 
     23 C23        10.2526   11.9399   30.7202 C.3       1 <1>         0.2383 
     24 C24        11.6859   12.1967   30.3265 C.2       1 <1>        -0.0014 
     25 C25        12.4389   12.3874   31.4082 C.2       1 <1>         0.0292 
     26 C26        11.4919   12.2624   32.5110 C.2       1 <1>         0.2495 
     27 O27        10.2351   12.0242   32.1601 O.3       1 <1>        -0.2308 
     28 O28        11.8217   12.3740   33.6790 O.2       1 <1>        -0.3691 
     29 C29        13.9166   12.6603   31.4752 C.3       1 <1>        -0.0323 
     30 C30         6.1555   10.2583   35.3084 C.2       1 <1>         0.2679 
     31 O31         6.6686   10.5730   36.3710 O.2       1 <1>        -0.3545 
     32 O32         6.2185   11.0769   34.2480 O.3       1 <1>        -0.2773 
     33 C33         6.9634   12.2905   34.4749 C.3       1 <1>         0.0729 
     34 C34         6.9741   13.0995   33.1566 C.3       1 <1>        -0.0373 
     35 H1          0.4031   10.0933   32.7530 H         1 <1>         0.0517 
     36 H2          2.3624    9.1674   33.7975 H         1 <1>         0.0660 
     37 H3          2.8665   11.7255   29.4830 H         1 <1>         0.0191 
     38 H4          3.7861    6.9036   33.0116 H         1 <1>         0.0701 
     39 H5          3.6381    5.4746   35.0329 H         1 <1>         0.0671 
     40 H6          4.6595    6.2408   37.1651 H         1 <1>         0.0685 
     41 H7          5.8118    8.4209   37.2731 H         1 <1>         0.0692 
     42 H8          7.4335    8.3041   33.3639 H         1 <1>         0.0652 
     43 H9          9.5876    8.9480   32.3293 H         1 <1>         0.0527 
     44 H10         7.4904   11.2768   29.3968 H         1 <1>         0.0506 
     45 H11         9.5838   12.7020   30.2872 H         1 <1>         0.1205 
     46 H12        12.0499   12.2159   29.3001 H         1 <1>         0.0706 
     47 H13        14.1215   13.6736   31.0992 H         1 <1>         0.0347 
     48 H14        14.4614   11.9292   30.8592 H         1 <1>         0.0347 
     49 H15        14.2717   12.5854   32.5140 H         1 <1>         0.0347 
     50 H16         8.0048   12.0658   34.7646 H         1 <1>         0.0608 
     51 H17         6.4891   12.8928   35.2686 H         1 <1>         0.0608 
     52 H18         5.9420   13.2992   32.8287 H         1 <1>         0.0255 
     53 H19         7.4896   12.5275   32.3718 H         1 <1>         0.0255 
     54 H20         7.4983   14.0580   33.2960 H         1 <1>         0.0255 
@<TRIPOS>BOND
     1    2    1 2    
     2    2    3 1    
     3    3    4 2    
     4    4    5 1    
     5    5    6 1    
     6    6    7 2    
     7    2    7 1    
     8    5    8 2    
     9    8    9 1    
    10    9   10 ar   
    11   10   11 ar   
    12   11   12 ar   
    13   12   13 ar   
    14   13   14 ar   
    15    9   14 ar   
    16    8   15 1    
    17   15   16 ar   
    18   16   17 1    
    19    6   17 1    
    20   15   18 ar   
    21   18   19 ar   
    22   19   20 ar   
    23   20   21 ar   
    24   16   21 ar   
    25   20   22 1    
    26   22   23 1    
    27   23   24 1    
    28   24   25 2    
    29   25   26 1    
    30   26   27 1    
    31   23   27 1    
    32   26   28 2    
    33   25   29 1    
    34   14   30 1    
    35   30   31 2    
    36   30   32 1    
    37   32   33 1    
    38   33   34 1    
    39    3   35 1    
    40    4   36 1    
    41    7   37 1    
    42   10   38 1    
    43   11   39 1    
    44   12   40 1    
    45   13   41 1    
    46   18   42 1    
    47   19   43 1    
    48   21   44 1    
    49   23   45 1    
    50   24   46 1    
    51   29   47 1    
    52   29   48 1    
    53   29   49 1    
    54   33   50 1    
    55   33   51 1    
    56   34   52 1    
    57   34   53 1    
    58   34   54 1    
@<TRIPOS>SUBSTRUCTURE
     1 ****        2 TEMP              0 ****  ****    0 ROOT 
@<TRIPOS>NORMAL
@<TRIPOS>FF_PBC
FORCE_FIELD_SETUP_FEATURE Force Field Setup information
v1.0  0 0.000000 0.000000 0.000000 0.000000 0.000000 0.000000 NONE 0 0 0 0 1 0 0 0 0 0 0 0 0
