#	Name:			PISM00374
#	Creating user name:	baoopengkun
#	Creation time:		Sun Mar 31 15:50:24 2019

#	Modifying user name:	baoopengkun
#	Modification time:	Sun Mar 31 15:57:17 2019

@<TRIPOS>MOLECULE
PISM00374
   56    56     1     1     0
SMALL
GAST_HUCK


@<TRIPOS>ATOM
      1 C1         -2.1546    2.1177   -1.8325 C.3       1 <1>        -0.0473 
      2 C2         -0.9132    4.8604    1.6832 C.3       1 <1>        -0.0740 
      3 C3         -2.7682    6.3998    0.9739 C.3       1 <1>        -0.0740 
      4 C4         -3.3529    4.0969    1.8272 C.3       1 <1>        -0.0150 
      5 C5         -2.3151    4.9058    0.9977 C.3       1 <1>        -0.0599 
      6 O6         -1.8161    2.2731    2.7391 O.3       1 <1>        -0.3508 
      7 C7         -2.9794    2.5947    1.9485 C.3       1 <1>         0.1149 
      8 C8         -2.6707    2.0483    0.5807 C.2       1 <1>        -0.0120 
      9 C9         -2.3747    2.7952   -0.4934 C.2       1 <1>        -0.0800 
     10 C10        -2.2822    4.3143   -0.4540 C.3       1 <1>         0.0164 
     11 C11        -1.9310    2.5088    4.1558 C.3       1 <1>         0.0534 
     12 C12        -0.5615    2.1260    4.7712 C.3       1 <1>        -0.0290 
     13 C13        -0.5295    2.3395    6.3090 C.3       1 <1>        -0.0512 
     14 C14         0.8619    1.9725    6.8938 C.3       1 <1>        -0.0558 
     15 C15         0.9034    2.1806    8.4299 C.3       1 <1>        -0.0653 
     16 C16        -1.0561    4.8557   -1.1622 C.2       1 <1>        -0.1031 
     17 C17         0.1331    4.2370   -1.1751 C.2       1 <1>        -0.0274 
     18 C18         1.3201    4.7918   -1.8621 C.2       1 <1>         0.0135 
     19 C19         1.1223    5.4675   -3.2011 C.3       1 <1>        -0.0153 
     20 C20         2.5554    4.7098   -1.3422 C.2       1 <1>         0.0548 
     21 C21         2.9641    4.1198   -0.0519 C.2       1 <1>         0.2661 
     22 O22         2.1380    3.6985    0.7402 O.2       1 <1>        -0.3516 
     23 O23         4.2613    4.0559    0.2547 O.3       1 <1>        -0.2932 
     24 O24        -3.4481    4.7884   -1.1519 O.3       1 <1>        -0.4739 
     25 H1         -1.5724    2.7218   -2.5421 H         1 <1>         0.0360 
     26 H2         -3.1393    1.9243   -2.2835 H         1 <1>         0.0360 
     27 H3         -1.6353    1.1549   -1.7130 H         1 <1>         0.0360 
     28 H4         -0.4551    3.8665    1.6085 H         1 <1>         0.0219 
     29 H5         -0.9953    5.1241    2.7477 H         1 <1>         0.0219 
     30 H6         -0.2200    5.5796    1.2219 H         1 <1>         0.0219 
     31 H7         -2.0939    7.0032    0.3485 H         1 <1>         0.0219 
     32 H8         -2.7592    6.8205    1.9914 H         1 <1>         0.0219 
     33 H9         -3.7884    6.5083    0.5764 H         1 <1>         0.0219 
     34 H10        -4.3204    4.1581    1.3011 H         1 <1>         0.0325 
     35 H11        -3.5003    4.5457    2.8192 H         1 <1>         0.0325 
     36 H12        -3.8509    2.0474    2.3484 H         1 <1>         0.0935 
     37 H13        -2.7018    0.9626    0.4860 H         1 <1>         0.1201 
     38 H14        -2.7265    1.8826    4.5909 H         1 <1>         0.0564 
     39 H15        -2.1327    3.5628    4.3948 H         1 <1>         0.0564 
     40 H16         0.2190    2.7442    4.2963 H         1 <1>         0.0287 
     41 H17        -0.3506    1.0693    4.5376 H         1 <1>         0.0287 
     42 H18        -1.3035    1.7121    6.7809 H         1 <1>         0.0266 
     43 H19        -0.7521    3.3948    6.5375 H         1 <1>         0.0266 
     44 H20         1.6367    2.6025    6.4251 H         1 <1>         0.0263 
     45 H21         1.0915    0.9178    6.6668 H         1 <1>         0.0263 
     46 H22         0.6966    3.2326    8.6811 H         1 <1>         0.0230 
     47 H23         1.8987    1.9164    8.8212 H         1 <1>         0.0230 
     48 H24         0.1527    1.5443    8.9239 H         1 <1>         0.0230 
     49 H25        -1.1635    5.8144   -1.6686 H         1 <1>         0.0477 
     50 H26         0.2361    3.2838   -0.6584 H         1 <1>         0.1020 
     51 H27         1.9520    5.2445   -3.8897 H         1 <1>         0.0428 
     52 H28         1.0676    6.5566   -3.0520 H         1 <1>         0.0428 
     53 H29         0.1922    5.1253   -3.6811 H         1 <1>         0.0428 
     54 H30         3.3898    5.1262   -1.9047 H         1 <1>         0.0888 
     55 H31         4.4029    3.6639    1.1099 H         1 <1>         0.2516 
     56 H32        -3.4781    4.5320   -2.0670 H         1 <1>         0.1784 
@<TRIPOS>BOND
     1    9    1 1    
     2    5    2 1    
     3    5    3 1    
     4    5    4 1    
     5    7    6 1    
     6    6   11 1    
     7    4    7 1    
     8    7    8 1    
     9    9    8 2    
    10   10    9 1    
    11    5   10 1    
    12   11   12 1    
    13   12   13 1    
    14   13   14 1    
    15   14   15 1    
    16    1   25 1    
    17    1   26 1    
    18   10   16 1    
    19   16   17 2    
    20   17   18 1    
    21   18   19 1    
    22   18   20 2    
    23   20   21 1    
    24   21   22 2    
    25   21   23 1    
    26   10   24 1    
    27    1   27 1    
    28    2   28 1    
    29    2   29 1    
    30    2   30 1    
    31    3   31 1    
    32    3   32 1    
    33    3   33 1    
    34    4   34 1    
    35    4   35 1    
    36    7   36 1    
    37    8   37 1    
    38   11   38 1    
    39   11   39 1    
    40   12   40 1    
    41   12   41 1    
    42   13   42 1    
    43   13   43 1    
    44   14   44 1    
    45   14   45 1    
    46   15   46 1    
    47   15   47 1    
    48   15   48 1    
    49   16   49 1    
    50   17   50 1    
    51   19   51 1    
    52   19   52 1    
    53   19   53 1    
    54   20   54 1    
    55   23   55 1    
    56   24   56 1    
@<TRIPOS>SUBSTRUCTURE
     1 ****        5 TEMP              0 ****  ****    0 ROOT 
@<TRIPOS>NORMAL
@<TRIPOS>FF_PBC
FORCE_FIELD_SETUP_FEATURE Force Field Setup information
v1.0  0 0.000000 0.000000 0.000000 0.000000 0.000000 0.000000 NONE 0 0 0 0 1 0 0 0 0 0 0 0 0
