#	Name:			PISM00834.2
#	Creating user name:	baoopengkun
#	Creation time:		Fri Nov 30 18:55:18 2018

#	Modifying user name:	baoopengkun
#	Modification time:	Fri Nov 30 18:59:33 2018

@<TRIPOS>MOLECULE
PISM00834.2
   32    33     1     2     0
SMALL
GAST_HUCK


@<TRIPOS>ATOM
      1 C1        -21.6038    0.0095   14.4802 C.ar      1 <1>        -0.0537 
      2 C2        -22.7676    0.5577   13.9325 C.ar      1 <1>        -0.0620 
      3 C3        -22.7181    1.7845   13.2655 C.ar      1 <1>        -0.0626 
      4 C4        -21.5010    2.4607   13.1480 C.ar      1 <1>        -0.0620 
      5 C5        -20.3431    1.9197   13.7146 C.ar      1 <1>        -0.0537 
      6 C6        -20.3879    0.7004   14.4014 C.ar      1 <1>        -0.0037 
      7 C7        -19.1218    0.1579   15.0342 C.2       1 <1>         0.0701 
      8 C8        -19.2276   -0.8032   16.2065 C.3       1 <1>         0.0408 
      9 N9        -19.3030   -2.1881   15.6943 N.3       1 <1>        -0.3189 
     10 N10       -18.0109    0.5364   14.5274 N.2       1 <1>        -0.1613 
     11 O11       -16.9371   -0.0761   15.1990 O.3       1 <1>        -0.1992 
     12 C12       -16.0913    0.8982   15.8203 C.3       1 <1>         0.2531 
     13 C13       -16.8830    1.6952   16.8296 C.2       1 <1>         0.0004 
     14 C14       -16.4304    1.4656   18.0606 C.2       1 <1>         0.0293 
     15 C15       -15.3279    0.5345   17.8519 C.2       1 <1>         0.2496 
     16 O16       -15.0832    0.2108   16.5881 O.3       1 <1>        -0.2292 
     17 O17       -14.6679    0.0875   18.7739 O.2       1 <1>        -0.3691 
     18 C18       -16.9263    2.0210   19.3675 C.3       1 <1>        -0.0323 
     19 H1        -21.6584   -0.9629   14.9575 H         1 <1>         0.0618 
     20 H2        -23.7115    0.0285   14.0228 H         1 <1>         0.0615 
     21 H3        -23.6215    2.2098   12.8389 H         1 <1>         0.0611 
     22 H4        -21.4556    3.4070   12.6175 H         1 <1>         0.0615 
     23 H5        -19.4055    2.4581   13.6193 H         1 <1>         0.0618 
     24 H6        -20.1411   -0.5711   16.7763 H         1 <1>         0.0589 
     25 H7        -18.3948   -0.6983   16.9205 H         1 <1>         0.0589 
     26 H8        -19.4024   -2.8952   16.5078 H         1 <1>         0.1207 
     27 H9        -18.4167   -2.4239   15.1188 H         1 <1>         0.1207 
     28 H10       -15.6261    1.5458   15.0603 H         1 <1>         0.1224 
     29 H11       -17.7127    2.3552   16.5788 H         1 <1>         0.0707 
     30 H12       -17.8626    2.5823   19.2287 H         1 <1>         0.0347 
     31 H13       -16.1640    2.6916   19.7910 H         1 <1>         0.0347 
     32 H14       -17.1062    1.1940   20.0705 H         1 <1>         0.0347 
@<TRIPOS>BOND
     1    2    1 ar   
     2    2    3 ar   
     3    3    4 ar   
     4    4    5 ar   
     5    5    6 ar   
     6    1    6 ar   
     7    6    7 1    
     8    7    8 1    
     9    8    9 1    
    10    7   10 2    
    11   10   11 1    
    12   11   12 1    
    13   12   13 1    
    14   13   14 2    
    15   14   15 1    
    16   15   16 1    
    17   12   16 1    
    18   15   17 2    
    19   14   18 1    
    20    1   19 1    
    21    2   20 1    
    22    3   21 1    
    23    4   22 1    
    24    5   23 1    
    25    8   24 1    
    26    8   25 1    
    27    9   26 1    
    28    9   27 1    
    29   12   28 1    
    30   13   29 1    
    31   18   30 1    
    32   18   31 1    
    33   18   32 1    
@<TRIPOS>SUBSTRUCTURE
     1 ****        2 TEMP              0 ****  ****    0 ROOT 
@<TRIPOS>NORMAL
@<TRIPOS>FF_PBC
FORCE_FIELD_SETUP_FEATURE Force Field Setup information
v1.0  0 0.000000 0.000000 0.000000 0.000000 0.000000 0.000000 NONE 0 0 0 0 1 0 0 0 0 0 0 0 0
@<TRIPOS>RENDERING_ATTRS
ANTIALIASED_LINES 
*
