#	Name:			PISM01120
#	Creating user name:	14062
#	Creation time:		Sat Apr 06 22:58:31 2019

#	Modifying user name:	14062
#	Modification time:	Sat Apr 06 23:00:37 2019

@<TRIPOS>MOLECULE
PISM01120
   27    29     2     2     0
SMALL
GAST_HUCK


@<TRIPOS>ATOM
      1 N1        -16.3426   13.9770   -3.0058 N.2       1 BENZYL     -0.2984 
      2 C1        -15.3772   13.3268   -3.8538 C.2       1 BENZYL      0.0365 
      3 C2        -15.4624   13.3799   -5.3657 C.ar      1 BENZYL     -0.0159 
      4 C3        -16.5509   14.0402   -5.9471 C.ar      1 BENZYL     -0.0555 
      5 C4        -16.6815   14.1138   -7.3369 C.ar      1 BENZYL     -0.0553 
      6 C5        -15.7188   13.5258   -8.1609 C.ar      1 BENZYL      0.0096 
      7 C6        -14.6271   12.8682   -7.5885 C.ar      1 BENZYL     -0.0553 
      8 C7        -14.4984   12.7969   -6.1980 C.ar      1 BENZYL     -0.0555 
      9 C9        -14.4612   12.7128   -3.0933 C.2       1 BENZYL      0.0284 
     10 S10       -14.7485   12.9103   -1.3277 S.3       1 BENZYL      0.0043 
     11 C11       -16.1810   13.8716   -1.7564 C.2       1 BENZYL      0.1224 
     12 Br12      -15.8888   13.6177  -10.0035 Br        1 BENZYL     -0.0526 
     13 C2        -17.1285   14.5112   -0.7653 C.ar      2 BENZYL      0.0479 
     14 C3        -16.9391   14.3733    0.6140 C.ar      2 BENZYL      0.0262 
     15 N15       -17.7921   14.9499    1.4863 N.ar      2 BENZYL     -0.2925 
     16 C5        -18.8499   15.6745    1.0677 C.ar      2 BENZYL      0.0135 
     17 C6        -19.0885   15.8457   -0.2985 C.ar      2 BENZYL     -0.0307 
     18 C7        -18.2194   15.2578   -1.2212 C.ar      2 BENZYL     -0.0279 
     19 H1        -17.3055   14.5016   -5.3180 H         1 BENZYL      0.0601 
     20 H2        -17.5307   14.6274   -7.7764 H         1 BENZYL      0.0634 
     21 H3        -13.8772   12.4120   -8.2268 H         1 BENZYL      0.0634 
     22 H4        -13.6398   12.2840   -5.7827 H         1 BENZYL      0.0601 
     23 H5        -13.6104   12.1385   -3.4515 H         1 BENZYL      0.0843 
     24 H6        -16.1049   13.8016    1.0038 H         2 BENZYL      0.0863 
     25 H7        -19.5127   16.1225    1.8009 H         2 BENZYL      0.0841 
     26 H8        -19.9391   16.4285   -0.6379 H         2 BENZYL      0.0715 
     27 H9        -18.3929   15.3821   -2.2855 H         2 BENZYL      0.0770 
@<TRIPOS>BOND
     1    2    3 1    
     2    3    4 ar   
     3    3    8 ar   
     4    8    7 ar   
     5    7    6 ar   
     6    6    5 ar   
     7    5    4 ar   
     8    2    1 1    
     9    2    9 2    
    10    9   10 1    
    11   10   11 1    
    12    1   11 2    
    13   13   11 1    
    14   13   14 ar   
    15   13   18 ar   
    16   18   17 ar   
    17   17   16 ar   
    18   16   15 ar   
    19   15   14 ar   
    20    6   12 1    
    21    4   19 1    
    22    5   20 1    
    23    7   21 1    
    24    8   22 1    
    25    9   23 1    
    26   14   24 1    
    27   16   25 1    
    28   17   26 1    
    29   18   27 1    
@<TRIPOS>SUBSTRUCTURE
     1 BENZYL      2 PERM              0 ****  ****    1  
     2 BENZYL     13 PERM              0 ****  ****    1 ROOT 
@<TRIPOS>NORMAL
@<TRIPOS>FF_PBC
FORCE_FIELD_SETUP_FEATURE Force Field Setup information
v1.0  0 0.000000 0.000000 0.000000 0.000000 0.000000 0.000000 NONE 0 0 0 0 1 0 0 0 0 0 0 0 0
@<TRIPOS>RENDERING_ATTRS
ANTIALIASED_LINES 
*
