#	Name:			PISM00807.1
#	Creating user name:	baoopengkun
#	Creation time:		Sat Dec 15 02:25:18 2018

#	Modifying user name:	baoopengkun
#	Modification time:	Sat Dec 15 02:29:39 2018

@<TRIPOS>MOLECULE
PISM00807.1
   28    28     1     1     0
SMALL
GAST_HUCK


@<TRIPOS>ATOM
      1 H1          7.9439   22.6493  -43.5637 H         1 <1>         0.0308 
      2 H2          6.8090   23.7466  -44.5372 H         1 <1>         0.0308 
      3 H3          7.6331   20.8407  -45.0689 H         1 <1>         0.0552 
      4 H4          5.1569   23.1161  -47.9102 H         1 <1>         0.0322 
      5 C5          7.2893   22.7761  -44.4269 C.2       1 <1>        -0.1219 
      6 C6          7.1022   21.7686  -45.2898 C.2       1 <1>        -0.0889 
      7 C7          6.2399   21.8250  -46.4970 C.2       1 <1>        -0.0353 
      8 C8          5.6440   23.1497  -46.9245 C.3       1 <1>        -0.0435 
      9 C9          6.0022   20.7040  -47.1961 C.2       1 <1>         0.0686 
     10 O10         5.2220   20.7448  -48.2868 O.3       1 <1>        -0.2728 
     11 C11         5.0763   19.4741  -48.9425 C.3       1 <1>         0.2458 
     12 C12         4.0502   19.6254  -50.0379 C.2       1 <1>         0.0159 
     13 C13         2.9838   18.8562  -49.8259 C.2       1 <1>         0.0196 
     14 C14         3.3195   18.1860  -48.5731 C.2       1 <1>         0.2325 
     15 O15         4.4982   18.5024  -48.0466 O.3       1 <1>        -0.2328 
     16 C16         1.7404   18.7073  -50.6599 C.3       1 <1>        -0.0421 
     17 C17         4.3122   20.5724  -51.1802 C.3       1 <1>        -0.0223 
     18 O18         2.5749   17.3823  -48.0391 O.2       1 <1>        -0.3822 
     19 H5          6.4372   23.9104  -46.9761 H         1 <1>         0.0322 
     20 H6          4.8926   23.4629  -46.1844 H         1 <1>         0.0322 
     21 H7          6.4523   19.7685  -46.8544 H         1 <1>         0.1024 
     22 H8          6.0306   19.1039  -49.3532 H         1 <1>         0.1237 
     23 H9          2.0055   18.3471  -51.6650 H         1 <1>         0.0303 
     24 H10         1.2298   19.6782  -50.7444 H         1 <1>         0.0303 
     25 H11         1.0541   17.9849  -50.1933 H         1 <1>         0.0303 
     26 H12         5.2254   20.2683  -51.7130 H         1 <1>         0.0429 
     27 H13         4.4499   21.5911  -50.7875 H         1 <1>         0.0429 
     28 H14         3.4752   20.5817  -51.8939 H         1 <1>         0.0429 
@<TRIPOS>BOND
     1    5    1 1    
     2    5    2 1    
     3    6    3 1    
     4    8    4 1    
     5    5    6 2    
     6    6    7 1    
     7    7    8 1    
     8    7    9 2    
     9    9   10 1    
    10   10   11 1    
    11   11   12 1    
    12   12   13 2    
    13   14   13 1    
    14   15   14 1    
    15   11   15 1    
    16   13   16 1    
    17   12   17 1    
    18   14   18 2    
    19    8   19 1    
    20    8   20 1    
    21    9   21 1    
    22   11   22 1    
    23   16   23 1    
    24   16   24 1    
    25   16   25 1    
    26   17   26 1    
    27   17   27 1    
    28   17   28 1    
@<TRIPOS>SUBSTRUCTURE
     1 ****        5 TEMP              0 ****  ****    0 ROOT 
@<TRIPOS>NORMAL
@<TRIPOS>FF_PBC
FORCE_FIELD_SETUP_FEATURE Force Field Setup information
v1.0  0 0.000000 0.000000 0.000000 0.000000 0.000000 0.000000 NONE 0 0 0 0 1 0 0 0 0 0 0 0 0
