#	Name:			PISM00321
#	Creating user name:	malab
#	Creation time:		Fri Apr 05 17:12:27 2019

#	Modifying user name:	malab
#	Modification time:	Fri Apr 05 17:12:37 2019

@<TRIPOS>MOLECULE
PISM00321
   94    99     1     1     0
SMALL
GAST_HUCK


@<TRIPOS>ATOM
      1 N1         11.5462    4.3567    3.1937 N.pl3     1 AZIDO      -0.2303 
      2 C2          8.7805    2.1515    0.9868 C.ar      1 AZIDO       0.0483 
      3 C3          8.9165    1.9538    2.3656 C.ar      1 AZIDO      -0.0504 
      4 C4          9.8404    2.6991    3.1035 C.ar      1 AZIDO      -0.0319 
      5 C5         11.5315    5.6652    3.2865 C.2       1 AZIDO       0.1870 
      6 S6         12.7984    6.3782    4.2177 S.2       1 AZIDO      -0.2495 
      7 C7         10.6482    3.6469    2.4690 C.ar      1 AZIDO       0.0724 
      8 C8         10.5353    3.8288    1.0871 C.ar      1 AZIDO      -0.0319 
      9 C9          9.6177    3.0757    0.3488 C.ar      1 AZIDO      -0.0504 
     10 N10        10.6194    6.4341    2.7388 N.pl3     1 AZIDO      -0.2263 
     11 C11        10.6673    7.7844    2.8442 C.ar      1 AZIDO       0.0841 
     12 C12         7.7309    1.3593    0.2331 C.2       1 AZIDO       0.2488 
     13 O13         7.4703    0.2387    0.6430 O.2       1 AZIDO      -0.3633 
     14 N14         7.1107    1.8528   -0.8049 N.pl3     1 AZIDO      -0.1530 
     15 N15         6.1390    1.1583   -1.4395 N.2       1 AZIDO      -0.1365 
     16 C16         4.9760    1.0097   -0.9393 C.2       1 AZIDO       0.0968 
     17 C17         4.6344    1.5720    0.4195 C.3       1 AZIDO      -0.0038 
     18 C18         3.0993    1.8177    0.5291 C.3       1 AZIDO      -0.0592 
     19 C19         2.7600    3.0198   -0.4073 C.3       1 AZIDO      -0.0740 
     20 C20         2.7589    2.2111    1.9968 C.3       1 AZIDO      -0.0740 
     21 C21         2.3167    0.5181    0.1243 C.3       1 AZIDO       0.0098 
     22 C22         2.7316    0.0297   -1.2545 C.2       1 AZIDO      -0.0885 
     23 C23         3.9646    0.2744   -1.7201 C.2       1 AZIDO      -0.0135 
     24 C24         1.7253   -0.7701   -2.0554 C.3       1 AZIDO      -0.0428 
     25 C25         0.8109    0.6460    0.2931 C.2       1 AZIDO      -0.1113 
     26 C26        -0.0378    1.3239   -0.4917 C.2       1 AZIDO      -0.0326 
     27 C27        -1.4931    1.2556   -0.2426 C.2       1 AZIDO       0.0083 
     28 C28        -2.1784   -0.0450   -0.5911 C.3       1 AZIDO      -0.0163 
     29 C29        -2.2138    2.2670    0.2663 C.2       1 AZIDO       0.0506 
     30 C30        -1.6839    3.5883    0.6736 C.2       1 AZIDO       0.2626 
     31 O31        -0.4909    3.8255    0.5999 O.2       1 AZIDO      -0.3540 
     32 O32        -2.4875    4.5535    1.1374 O.3       1 AZIDO      -0.2939 
     33 O33         2.6394   -0.5716    1.0158 O.3       1 AZIDO      -0.4814 
     34 C34         9.6182    8.4715    3.4629 C.ar      1 AZIDO      -0.0062 
     35 C35         9.6584    9.8632    3.6172 C.ar      1 AZIDO       0.0720 
     36 C36        10.7539   10.5713    3.1047 C.ar      1 AZIDO       0.0168 
     37 C37        11.8010    9.8903    2.4773 C.ar      1 AZIDO      -0.0453 
     38 C38        11.7527    8.5018    2.3327 C.ar      1 AZIDO      -0.0225 
     39 C39         8.5255   10.5672    4.3359 C.2       1 AZIDO       0.2638 
     40 O40         8.6134   11.8704    4.6249 O.3       1 AZIDO      -0.2929 
     41 O41         7.5318    9.9297    4.6531 O.2       1 AZIDO      -0.3543 
     42 C42        10.8466   12.0780    3.2033 C.2       1 AZIDO       0.0239 
     43 C43        10.0745   12.8750    2.4538 C.2       1 AZIDO       0.0389 
     44 C44        10.1952   14.3460    2.5861 C.2       1 AZIDO       0.1273 
     45 O45        11.0792   14.8967    3.4277 O.3       1 AZIDO      -0.2368 
     46 C46        11.9077   14.0995    4.2197 C.ar      1 AZIDO       0.1522 
     47 C47        11.8293   12.7053    4.1643 C.ar      1 AZIDO       0.0491 
     48 C48        12.8232   14.7128    5.0794 C.ar      1 AZIDO      -0.0131 
     49 C49        13.6539   13.9385    5.8942 C.ar      1 AZIDO      -0.0594 
     50 C50        13.5637   12.5451    5.8522 C.ar      1 AZIDO      -0.0610 
     51 C51        12.6492   11.9290    4.9928 C.ar      1 AZIDO      -0.0461 
     52 C52         9.4127   15.1500    1.8573 C.2       1 AZIDO      -0.0202 
     53 C53         8.4266   14.5982    0.9157 C.2       1 AZIDO       0.0660 
     54 C54         8.3141   13.1404    0.7618 C.2       1 AZIDO      -0.0377 
     55 C55         9.0939   12.3305    1.4862 C.2       1 AZIDO      -0.0504 
     56 O56         7.7103   15.3437    0.2668 O.2       1 AZIDO      -0.4447 
     57 H1         12.2748    3.8257    3.6969 H         1 AZIDO       0.2213 
     58 H2          8.2976    1.2220    2.8754 H         1 AZIDO       0.0641 
     59 H3          9.9292    2.5431    4.1739 H         1 AZIDO       0.0550 
     60 H4         11.1681    4.5536    0.5842 H         1 AZIDO       0.0550 
     61 H5          9.5748    3.2142   -0.7259 H         1 AZIDO       0.0641 
     62 H6          9.8174    6.0228    2.2411 H         1 AZIDO       0.2239 
     63 H7          7.3251    2.8016   -1.1406 H         1 AZIDO       0.2503 
     64 H8          5.1642    2.5217    0.5893 H         1 AZIDO       0.0436 
     65 H9          4.9926    0.8759    1.1909 H         1 AZIDO       0.0436 
     66 H10         2.8689    2.7539   -1.4687 H         1 AZIDO       0.0219 
     67 H11         3.4168    3.8793   -0.2058 H         1 AZIDO       0.0219 
     68 H12         1.7386    3.3722   -0.2430 H         1 AZIDO       0.0219 
     69 H13         1.6884    2.4428    2.1051 H         1 AZIDO       0.0219 
     70 H14         3.3335    3.1007    2.2982 H         1 AZIDO       0.0219 
     71 H15         3.0064    1.3913    2.6883 H         1 AZIDO       0.0219 
     72 H16         4.2613   -0.0771   -2.7081 H         1 AZIDO       0.0958 
     73 H17         0.9590   -0.1154   -2.4913 H         1 AZIDO       0.0402 
     74 H18         1.2378   -1.5128   -1.4057 H         1 AZIDO       0.0402 
     75 H19         2.2037   -1.3149   -2.8833 H         1 AZIDO       0.0402 
     76 H20         0.3580    0.1202    1.1361 H         1 AZIDO       0.0471 
     77 H21         0.2941    1.9135   -1.3444 H         1 AZIDO       0.0968 
     78 H22        -1.5020   -0.7109   -1.1494 H         1 AZIDO       0.0428 
     79 H23        -3.0670    0.1406   -1.2140 H         1 AZIDO       0.0428 
     80 H24        -2.4873   -0.5568    0.3327 H         1 AZIDO       0.0428 
     81 H25        -3.2833    2.0980    0.3987 H         1 AZIDO       0.0849 
     82 H26        -3.4085    4.3217    1.1820 H         1 AZIDO       0.2515 
     83 H27         3.5341   -0.8886    0.9685 H         1 AZIDO       0.1757 
     84 H28         8.7688    7.9059    3.8311 H         1 AZIDO       0.0625 
     85 H29        12.6546   10.4420    2.0963 H         1 AZIDO       0.0682 
     86 H30        12.5562    7.9843    1.8185 H         1 AZIDO       0.0603 
     87 H31         7.8509   12.2196    5.0742 H         1 AZIDO       0.2523 
     88 H32        12.8872   15.7957    5.1131 H         1 AZIDO       0.0586 
     89 H33        14.3661   14.4189    6.5580 H         1 AZIDO       0.0663 
     90 H34        14.2040   11.9409    6.4877 H         1 AZIDO       0.0571 
     91 H35        12.5845   10.8466    4.9804 H         1 AZIDO       0.0663 
     92 H36         9.5015   16.2321    1.9570 H         1 AZIDO       0.0188 
     93 H37         7.5914   12.7339    0.0527 H         1 AZIDO       0.0514 
     94 H38         8.9823   11.2565    1.3377 H         1 AZIDO       0.0659 
@<TRIPOS>BOND
     1    2   12 1    
     2    7    1 1    
     3    3    2 ar   
     4    4    3 ar   
     5    1    5 1    
     6    4    7 ar   
     7    7    8 ar   
     8    8    9 ar   
     9    2    9 ar   
    10    5    6 2    
    11    5   10 1    
    12   10   11 1    
    13   12   13 2    
    14   12   14 1    
    15   14   15 1    
    16   15   16 2    
    17   16   17 1    
    18   17   18 1    
    19   18   19 1    
    20   18   20 1    
    21   18   21 1    
    22   21   22 1    
    23   22   23 2    
    24   16   23 1    
    25   22   24 1    
    26   21   25 1    
    27   25   26 2    
    28   26   27 1    
    29   27   28 1    
    30   27   29 2    
    31   29   30 1    
    32   30   31 2    
    33   30   32 1    
    34   21   33 1    
    35   11   34 ar   
    36   34   35 ar   
    37   35   36 ar   
    38   36   37 ar   
    39   37   38 ar   
    40   11   38 ar   
    41   35   39 1    
    42   39   40 1    
    43   39   41 2    
    44   36   42 1    
    45   42   43 2    
    46   43   44 1    
    47   44   45 1    
    48   45   46 1    
    49   46   47 ar   
    50   42   47 1    
    51   46   48 ar   
    52   48   49 ar   
    53   49   50 ar   
    54   50   51 ar   
    55   47   51 ar   
    56   44   52 2    
    57   52   53 1    
    58   53   54 1    
    59   54   55 2    
    60   43   55 1    
    61   53   56 2    
    62    1   57 1    
    63    3   58 1    
    64    4   59 1    
    65    8   60 1    
    66    9   61 1    
    67   10   62 1    
    68   14   63 1    
    69   17   64 1    
    70   17   65 1    
    71   19   66 1    
    72   19   67 1    
    73   19   68 1    
    74   20   69 1    
    75   20   70 1    
    76   20   71 1    
    77   23   72 1    
    78   24   73 1    
    79   24   74 1    
    80   24   75 1    
    81   25   76 1    
    82   26   77 1    
    83   28   78 1    
    84   28   79 1    
    85   28   80 1    
    86   29   81 1    
    87   32   82 1    
    88   33   83 1    
    89   34   84 1    
    90   37   85 1    
    91   38   86 1    
    92   40   87 1    
    93   48   88 1    
    94   49   89 1    
    95   50   90 1    
    96   51   91 1    
    97   52   92 1    
    98   54   93 1    
    99   55   94 1    
@<TRIPOS>SUBSTRUCTURE
     1 AZIDO       2 PERM              0 ****  ****    0 ROOT 
@<TRIPOS>NORMAL
@<TRIPOS>FF_PBC
FORCE_FIELD_SETUP_FEATURE Force Field Setup information
v1.0  0 0.000000 0.000000 0.000000 0.000000 0.000000 0.000000 NONE 0 0 0 0 0 0 0 0 0 0 0 0 0
