#	Name:			PISM00873
#	Creating user name:	baoopengkun
#	Creation time:		Thu Dec 13 23:15:37 2018

#	Modifying user name:	baoopengkun
#	Modification time:	Thu Dec 13 23:55:59 2018

@<TRIPOS>MOLECULE
PISM00873
   24    25     1     1     0
SMALL
GAST_HUCK


@<TRIPOS>ATOM
      1 H2          1.0258    0.8853    1.7660 H         1 <1>         0.0551 
      2 C2         -0.7146    2.0961    2.1681 C.ar      1 <1>        -0.0538 
      3 C3         -1.7956    2.7856    1.6118 C.ar      1 <1>         0.0313 
      4 C4         -1.9738    2.8046    0.2257 C.ar      1 <1>        -0.0470 
      5 C5         -1.0706    2.1358   -0.6055 C.ar      1 <1>         0.0416 
      6 C6          0.0159    1.4536   -0.0492 C.ar      1 <1>         0.1085 
      7 C7          0.1892    1.4270    1.3375 C.ar      1 <1>        -0.0291 
      8 Br8        -1.3131    2.1537   -2.4424 Br        1 <1>        -0.0579 
      9 O9          0.9250    0.8000   -0.8784 O.3       1 <1>        -0.2683 
     10 C10         2.0961    1.5815   -1.1447 C.3       1 <1>         0.2366 
     11 O11         1.7237    2.8516   -1.7173 O.3       1 <1>        -0.2312 
     12 C12         2.1897    2.8251   -2.9592 C.2       1 <1>         0.2495 
     13 C13         2.9296    1.6227   -3.3261 C.2       1 <1>         0.0292 
     14 C14         2.8807    0.8776   -2.2236 C.2       1 <1>        -0.0018 
     15 C15         3.5883    1.2978   -4.6389 C.3       1 <1>        -0.0323 
     16 O16         2.0152    3.7512   -3.7323 O.2       1 <1>        -0.3691 
     17 H1         -0.5793    2.0812    3.2448 H         1 <1>         0.0619 
     18 Cl18       -2.9275    3.6254    2.6520 Cl        1 <1>        -0.0803 
     19 H3         -2.8143    3.3394   -0.2036 H         1 <1>         0.0623 
     20 H4          2.7064    1.7337   -0.2393 H         1 <1>         0.1201 
     21 H5          3.3334   -0.1070   -2.1143 H         1 <1>         0.0705 
     22 H6          3.2635    0.3051   -4.9847 H         1 <1>         0.0347 
     23 H7          4.6812    1.2971   -4.5134 H         1 <1>         0.0347 
     24 H8          3.3158    2.0460   -5.3983 H         1 <1>         0.0347 
@<TRIPOS>BOND
     1    7    1 1    
     2    3    2 ar   
     3    4    3 ar   
     4    5    4 ar   
     5    6    5 ar   
     6    6    7 ar   
     7    2    7 ar   
     8    5    8 1    
     9    6    9 1    
    10    9   10 1    
    11   10   11 1    
    12   11   12 1    
    13   12   13 1    
    14   13   14 2    
    15   10   14 1    
    16   13   15 1    
    17   12   16 2    
    18    2   17 1    
    19    3   18 1    
    20    4   19 1    
    21   10   20 1    
    22   14   21 1    
    23   15   22 1    
    24   15   23 1    
    25   15   24 1    
@<TRIPOS>SUBSTRUCTURE
     1 ****        2 TEMP              0 ****  ****    0 ROOT 
@<TRIPOS>NORMAL
@<TRIPOS>FF_PBC
FORCE_FIELD_SETUP_FEATURE Force Field Setup information
v1.0  0 0.000000 0.000000 0.000000 0.000000 0.000000 0.000000 NONE 0 0 0 0 1 0 0 0 0 0 0 0 0
