#	Name:			PISM00582
#	Creating user name:	baoopengkun
#	Creation time:		Mon Dec 10 10:51:08 2018

#	Modifying user name:	baoopengkun
#	Modification time:	Mon Dec 10 10:51:29 2018

@<TRIPOS>MOLECULE
PISM00582
   45    47     1     2     0
SMALL
GAST_HUCK


@<TRIPOS>ATOM
      1 C1         18.4682   -4.9058  -29.1198 C.2       1 <1>         0.0618 
      2 N2         19.4633   -3.8698  -29.0935 N.2       1 <1>        -0.2870 
      3 C3         20.5836   -4.3445  -28.7872 C.2       1 <1>         0.1274 
      4 N4         20.4873   -5.6228  -28.5814 N.pl3     1 <1>        -0.1784 
      5 N5         19.1771   -5.9246  -28.8051 N.2       1 <1>        -0.1904 
      6 C6         21.5534   -6.5602  -28.2456 C.3       1 <1>         0.1050 
      7 C7         21.6976   -6.6201  -26.6971 C.3       1 <1>         0.0092 
      8 C8         20.3916   -6.9968  -25.9793 C.ar      1 <1>        -0.0404 
      9 C9         20.2070   -8.2836  -25.4586 C.ar      1 <1>        -0.0596 
     10 C10        19.0103   -8.6260  -24.8226 C.ar      1 <1>        -0.0546 
     11 C11        17.9879   -7.6821  -24.6998 C.ar      1 <1>         0.0330 
     12 C12        18.1699   -6.3925  -25.2048 C.ar      1 <1>        -0.0546 
     13 C13        19.3716   -6.0493  -25.8307 C.ar      1 <1>        -0.0596 
     14 Cl14       16.4826   -8.1139  -23.9143 Cl        1 <1>        -0.0771 
     15 C15        21.2971   -7.9312  -28.9526 C.3       1 <1>         0.1007 
     16 O16        20.2948   -8.6229  -28.1808 O.3       1 <1>        -0.4178 
     17 C17        20.8011   -7.6508  -30.3958 C.ar      1 <1>        -0.0165 
     18 C18        21.5775   -6.8997  -31.2899 C.ar      1 <1>        -0.0369 
     19 C19        21.1844   -6.7207  -32.6195 C.ar      1 <1>        -0.0323 
     20 C20        19.9755   -7.2540  -33.0702 C.ar      1 <1>        -0.0340 
     21 C21        19.1558   -7.9428  -32.1743 C.ar      1 <1>        -0.0323 
     22 C22        19.5567   -8.1158  -30.8462 C.ar      1 <1>        -0.0369 
     23 C23        22.5557   -8.8563  -28.9571 C.3       1 <1>        -0.0162 
     24 C24        23.7974   -8.2886  -29.6041 C.2       1 <1>        -0.0946 
     25 C25        24.7671   -7.6797  -28.9105 C.2       1 <1>        -0.1181 
     26 H1         17.4048   -4.8465  -29.3453 H         1 <1>         0.0863 
     27 H2         21.4927   -3.7493  -28.7126 H         1 <1>         0.1361 
     28 H3         22.4938   -6.1420  -28.6350 H         1 <1>         0.0634 
     29 H4         21.9866   -5.6205  -26.3350 H         1 <1>         0.0451 
     30 H5         22.5052   -7.3079  -26.4088 H         1 <1>         0.0451 
     31 H6         20.9916   -9.0277  -25.5498 H         1 <1>         0.0557 
     32 H7         18.8722   -9.6258  -24.4243 H         1 <1>         0.0606 
     33 H8         17.3768   -5.6581  -25.1101 H         1 <1>         0.0606 
     34 H9         19.5063   -5.0384  -26.2009 H         1 <1>         0.0557 
     35 H10        20.1240   -9.5181  -28.4531 H         1 <1>         0.1965 
     36 H11        22.4997   -6.4318  -30.9695 H         1 <1>         0.0851 
     37 H12        21.8183   -6.1643  -33.3038 H         1 <1>         0.0698 
     38 H13        19.6740   -7.1310  -34.1061 H         1 <1>         0.0856 
     39 H14        18.2034   -8.3423  -32.5106 H         1 <1>         0.0698 
     40 H15        18.8682   -8.6125  -30.1733 H         1 <1>         0.0851 
     41 H16        22.3084   -9.7851  -29.4955 H         1 <1>         0.0376 
     42 H17        22.7857   -9.1460  -27.9207 H         1 <1>         0.0376 
     43 H18        23.9135   -8.3851  -30.6856 H         1 <1>         0.0665 
     44 H19        25.6486   -7.2862  -29.4172 H         1 <1>         0.0290 
     45 H20        24.7076   -7.5589  -27.8294 H         1 <1>         0.0290 
@<TRIPOS>BOND
     1    2    1 1    
     2    2    3 2    
     3    3    4 1    
     4    4    5 1    
     5    1    5 2    
     6    4    6 1    
     7    6    7 1    
     8    7    8 1    
     9    8    9 ar   
    10    9   10 ar   
    11   10   11 ar   
    12   11   12 ar   
    13   12   13 ar   
    14    8   13 ar   
    15   11   14 1    
    16    6   15 1    
    17   15   16 1    
    18   15   17 1    
    19   17   18 ar   
    20   18   19 ar   
    21   19   20 ar   
    22   20   21 ar   
    23   21   22 ar   
    24   17   22 ar   
    25   15   23 1    
    26   23   24 1    
    27   24   25 2    
    28    1   26 1    
    29    3   27 1    
    30    6   28 1    
    31    7   29 1    
    32    7   30 1    
    33    9   31 1    
    34   10   32 1    
    35   12   33 1    
    36   13   34 1    
    37   16   35 1    
    38   18   36 1    
    39   19   37 1    
    40   20   38 1    
    41   21   39 1    
    42   22   40 1    
    43   23   41 1    
    44   23   42 1    
    45   24   43 1    
    46   25   44 1    
    47   25   45 1    
@<TRIPOS>SUBSTRUCTURE
     1 ****        2 TEMP              0 ****  ****    0 ROOT 
@<TRIPOS>NORMAL
@<TRIPOS>FF_PBC
FORCE_FIELD_SETUP_FEATURE Force Field Setup information
v1.0  0 0.000000 0.000000 0.000000 0.000000 0.000000 0.000000 NONE 0 0 0 0 1 0 0 0 0 0 0 0 0
@<TRIPOS>RENDERING_ATTRS
ANTIALIASED_LINES 
*
