#	Name:			PISM00640
#	Creating user name:	baoopengkun
#	Creation time:		Thu Jan 24 21:22:33 2019

#	Modifying user name:	baoopengkun
#	Modification time:	Thu Jan 24 21:25:10 2019

@<TRIPOS>MOLECULE
PISM00640
   90    94     1     1     0
SMALL
GAST_HUCK


@<TRIPOS>ATOM
      1 C1         -6.2099   -8.1364    1.7668 C.3       1 <1>        -0.0163 
      2 C2         -7.4160   -9.0984    1.9677 C.3       1 <1>         0.0819 
      3 C3         -7.0068  -10.5278    1.5340 C.3       1 <1>         0.0835 
      4 C4         -5.7297  -10.9747    2.3018 C.3       1 <1>        -0.0028 
      5 C5         -4.5274   -9.9703    2.2153 C.3       1 <1>         0.0681 
      6 C6         -4.8987   -8.4859    2.5731 C.3       1 <1>        -0.0055 
      7 O7         -8.5485   -8.6538    1.1962 O.3       1 <1>        -0.3892 
      8 O8         -6.8538  -10.4881    0.1046 O.3       1 <1>        -0.3891 
      9 C9         -3.8324  -10.1668    0.8762 C.2       1 <1>         0.2374 
     10 O10        -4.4093  -10.6924   -0.0591 O.2       1 <1>        -0.3701 
     11 O11        -2.5536   -9.8391    0.6533 O.3       1 <1>        -0.2763 
     12 C12        -1.8072   -9.2489    1.7246 C.3       1 <1>         0.0801 
     13 C13        -2.2236   -7.7689    1.9664 C.3       1 <1>        -0.0063 
     14 C14        -3.7585   -7.4246    2.1903 C.3       1 <1>        -0.0276 
     15 C15        -5.2940   -8.4097    4.0900 C.3       1 <1>        -0.0568 
     16 C16        -3.8342   -6.0526    2.9452 C.3       1 <1>        -0.0487 
     17 C17        -3.0629   -5.9914    4.3094 C.3       1 <1>        -0.0468 
     18 C18        -1.6728   -6.7302    4.3375 C.3       1 <1>        -0.0257 
     19 C19        -1.2477   -6.9172    2.8594 C.3       1 <1>        -0.0298 
     20 C20        -0.4480   -5.9079    4.8947 C.3       1 <1>        -0.0303 
     21 C21         0.7862   -6.4873    4.1274 C.3       1 <1>        -0.0491 
     22 C22         0.2390   -7.3309    2.9395 C.3       1 <1>        -0.0491 
     23 C23        -1.7342   -8.0959    5.0890 C.3       1 <1>        -0.0590 
     24 C24        -0.2768   -5.7849    6.4587 C.3       1 <1>        -0.0116 
     25 C25         1.0772   -5.1268    6.9053 C.3       1 <1>         0.0913 
     26 C26         2.4725   -5.8429    7.0648 C.3       1 <1>         0.0912 
     27 C27         2.6813   -7.2066    7.8343 C.3       1 <1>        -0.0126 
     28 C28         4.1856   -7.5581    8.1965 C.3       1 <1>        -0.0417 
     29 C29         5.0458   -6.4204    8.8268 C.3       1 <1>        -0.0623 
     30 C30         4.2854   -8.7850    9.1653 C.3       1 <1>        -0.0623 
     31 C31         2.1240   -8.4413    7.0588 C.3       1 <1>        -0.0597 
     32 C32        -1.4682   -4.9492    7.0306 C.3       1 <1>        -0.0597 
     33 O33         0.9238   -4.5938    8.2222 O.3       1 <1>        -0.3407 
     34 C34         2.1844   -4.0721    8.6322 C.3       1 <1>         0.1911 
     35 O35         3.1248   -4.7975    7.8155 O.3       1 <1>        -0.3407 
     36 C36         2.3228   -2.5652    8.2854 C.3       1 <1>        -0.0082 
     37 C37         2.3209   -4.2677   10.1722 C.3       1 <1>         0.0979 
     38 O38         1.9160   -5.5718   10.6306 O.3       1 <1>        -0.3897 
     39 H1         -6.5562   -7.1200    2.0155 H         1 <1>         0.0298 
     40 H2         -6.0040   -8.1601    0.6828 H         1 <1>         0.0298 
     41 H3         -7.7791   -9.0951    3.0049 H         1 <1>         0.0619 
     42 H4         -7.8328  -11.2268    1.7588 H         1 <1>         0.0621 
     43 H5         -5.4133  -11.9607    1.9217 H         1 <1>         0.0319 
     44 H6         -6.0257  -11.1521    3.3472 H         1 <1>         0.0319 
     45 H7         -3.8492  -10.3365    2.9970 H         1 <1>         0.0560 
     46 H8         -8.3697   -8.6997    0.2605 H         1 <1>         0.2099 
     47 H9         -6.4372  -11.2662   -0.2518 H         1 <1>         0.2099 
     48 H10        -0.7931   -9.2627    1.2917 H         1 <1>         0.0616 
     49 H11        -1.7263   -9.8851    2.6112 H         1 <1>         0.0616 
     50 H12        -1.9623   -7.3688    0.9619 H         1 <1>         0.0332 
     51 H13        -4.0715   -7.1430    1.1694 H         1 <1>         0.0311 
     52 H14        -5.7524   -7.4465    4.3485 H         1 <1>         0.0237 
     53 H15        -4.4433   -8.5679    4.7478 H         1 <1>         0.0237 
     54 H16        -6.0187   -9.1668    4.4006 H         1 <1>         0.0237 
     55 H17        -4.8737   -5.7231    3.0926 H         1 <1>         0.0268 
     56 H18        -3.3986   -5.2804    2.2859 H         1 <1>         0.0268 
     57 H19        -3.7087   -6.3654    5.1156 H         1 <1>         0.0271 
     58 H20        -2.9130   -4.9202    4.5187 H         1 <1>         0.0271 
     59 H21        -1.1971   -5.8962    2.4321 H         1 <1>         0.0310 
     60 H22        -0.5607   -4.8773    4.5178 H         1 <1>         0.0310 
     61 H23         1.4027   -7.1324    4.7592 H         1 <1>         0.0268 
     62 H24         1.4377   -5.6765    3.7586 H         1 <1>         0.0268 
     63 H25         0.3382   -8.4032    3.1720 H         1 <1>         0.0268 
     64 H26         0.7732   -7.1363    1.9937 H         1 <1>         0.0268 
     65 H27        -2.2189   -7.9841    6.0699 H         1 <1>         0.0235 
     66 H28        -2.2863   -8.8461    4.5248 H         1 <1>         0.0235 
     67 H29        -0.7389   -8.5218    5.2597 H         1 <1>         0.0235 
     68 H30        -0.3647   -6.7386    6.9826 H         1 <1>         0.0327 
     69 H31         1.2156   -4.2771    6.2144 H         1 <1>         0.0626 
     70 H32         2.9971   -5.9242    6.1033 H         1 <1>         0.0626 
     71 H33         2.1121   -7.1316    8.7662 H         1 <1>         0.0326 
     72 H34         4.7192   -7.8264    7.2675 H         1 <1>         0.0299 
     73 H35         5.2478   -5.6063    8.1174 H         1 <1>         0.0232 
     74 H36         6.0405   -6.7870    9.1280 H         1 <1>         0.0232 
     75 H37         4.5477   -6.0293    9.7230 H         1 <1>         0.0232 
     76 H38         3.6033   -8.6517   10.0189 H         1 <1>         0.0232 
     77 H39         5.3003   -8.9173    9.5720 H         1 <1>         0.0232 
     78 H40         4.0518   -9.7367    8.6686 H         1 <1>         0.0232 
     79 H41         1.0977   -8.3142    6.7312 H         1 <1>         0.0233 
     80 H42         2.7376   -8.6562    6.1716 H         1 <1>         0.0233 
     81 H43         2.0920   -9.3434    7.6825 H         1 <1>         0.0233 
     82 H44        -1.5025   -3.9485    6.5723 H         1 <1>         0.0233 
     83 H45        -1.4061   -4.8188    8.1217 H         1 <1>         0.0233 
     84 H46        -2.4262   -5.4511    6.8543 H         1 <1>         0.0233 
     85 H47         1.5380   -1.9788    8.7861 H         1 <1>         0.0282 
     86 H48         2.2407   -2.3891    7.2040 H         1 <1>         0.0282 
     87 H49         3.3083   -2.2042    8.6181 H         1 <1>         0.0282 
     88 H50         1.6934   -3.5203   10.6835 H         1 <1>         0.0611 
     89 H51         3.3636   -4.0844   10.4699 H         1 <1>         0.0611 
     90 H52         1.0148   -5.7642   10.3838 H         1 <1>         0.2096 
@<TRIPOS>BOND
     1    2    1 1    
     2    2    3 1    
     3    3    4 1    
     4    4    5 1    
     5    5    6 1    
     6    1    6 1    
     7    2    7 1    
     8    3    8 1    
     9    5    9 1    
    10    9   10 2    
    11    9   11 1    
    12   11   12 1    
    13   12   13 1    
    14   13   14 1    
    15    6   14 1    
    16    6   15 1    
    17   14   16 1    
    18   16   17 1    
    19   17   18 1    
    20   18   19 1    
    21   13   19 1    
    22   18   20 1    
    23   20   21 1    
    24   21   22 1    
    25   19   22 1    
    26   18   23 1    
    27   20   24 1    
    28   24   25 1    
    29   25   26 1    
    30   26   27 1    
    31   27   28 1    
    32   28   29 1    
    33   28   30 1    
    34   27   31 1    
    35   24   32 1    
    36   25   33 1    
    37   33   34 1    
    38   34   35 1    
    39   26   35 1    
    40   34   36 1    
    41   34   37 1    
    42   37   38 1    
    43    1   39 1    
    44    1   40 1    
    45    2   41 1    
    46    3   42 1    
    47    4   43 1    
    48    4   44 1    
    49    5   45 1    
    50    7   46 1    
    51    8   47 1    
    52   12   48 1    
    53   12   49 1    
    54   13   50 1    
    55   14   51 1    
    56   15   52 1    
    57   15   53 1    
    58   15   54 1    
    59   16   55 1    
    60   16   56 1    
    61   17   57 1    
    62   17   58 1    
    63   19   59 1    
    64   20   60 1    
    65   21   61 1    
    66   21   62 1    
    67   22   63 1    
    68   22   64 1    
    69   23   65 1    
    70   23   66 1    
    71   23   67 1    
    72   24   68 1    
    73   25   69 1    
    74   26   70 1    
    75   27   71 1    
    76   28   72 1    
    77   29   73 1    
    78   29   74 1    
    79   29   75 1    
    80   30   76 1    
    81   30   77 1    
    82   30   78 1    
    83   31   79 1    
    84   31   80 1    
    85   31   81 1    
    86   32   82 1    
    87   32   83 1    
    88   32   84 1    
    89   36   85 1    
    90   36   86 1    
    91   36   87 1    
    92   37   88 1    
    93   37   89 1    
    94   38   90 1    
@<TRIPOS>SUBSTRUCTURE
     1 ****        2 TEMP              0 ****  ****    0 ROOT 
@<TRIPOS>NORMAL
@<TRIPOS>FF_PBC
FORCE_FIELD_SETUP_FEATURE Force Field Setup information
v1.0  0 0.000000 0.000000 0.000000 0.000000 0.000000 0.000000 NONE 0 0 0 0 1 0 0 0 0 0 0 0 0
