#	Name:			PISM00132
#	Creating user name:	malab
#	Creation time:		Thu Apr 04 11:00:27 2019

#	Modifying user name:	malab
#	Modification time:	Thu Apr 04 11:05:37 2019

@<TRIPOS>MOLECULE
PISM00132
   59    62     1     1     0
SMALL
GAST_HUCK


@<TRIPOS>ATOM
      1 C1         -2.3632    0.9001   -7.4990 C.ar      1 <1>        -0.0575 
      2 C2         -1.8684    0.9138   -8.8064 C.ar      1 <1>        -0.0567 
      3 C3         -2.6397    0.3910   -9.8482 C.ar      1 <1>        -0.0414 
      4 C4         -3.8996   -0.1514   -9.5758 C.ar      1 <1>         0.0643 
      5 C5         -4.3632   -0.2333   -8.2621 C.ar      1 <1>         0.0171 
      6 C6         -3.6203    0.3497   -7.2284 C.ar      1 <1>        -0.0479 
      7 C7         -4.8098   -0.6602  -10.6698 C.2       1 <1>         0.2403 
      8 O8         -4.4519   -0.5512  -11.8326 O.2       1 <1>        -0.3805 
      9 N9         -5.9562   -1.1980  -10.3417 N.pl3     1 <1>        -0.1630 
     10 C10        -6.8421   -1.6964  -11.3891 C.3       1 <1>         0.0567 
     11 N11        -6.3582   -1.3397   -9.0537 N.2       1 <1>        -0.1772 
     12 C12        -5.6777   -0.9512   -8.0499 C.2       1 <1>         0.0803 
     13 C13        -6.2216   -1.2370   -6.6678 C.ar      1 <1>        -0.0109 
     14 C14        -5.3989   -1.7755   -5.6725 C.ar      1 <1>        -0.0605 
     15 C15        -5.8922   -1.9478   -4.3765 C.ar      1 <1>        -0.0310 
     16 C16        -7.2133   -1.6022   -4.0809 C.ar      1 <1>         0.0961 
     17 C17        -8.0624   -1.1554   -5.0951 C.ar      1 <1>        -0.0310 
     18 C18        -7.5655   -0.9681   -6.3880 C.ar      1 <1>        -0.0605 
     19 O19        -7.6811   -1.6902   -2.7710 O.3       1 <1>        -0.2964 
     20 C20        -7.3602   -0.5218   -1.9890 C.3       1 <1>         0.1596 
     21 C21        -7.8390   -0.6240   -0.5583 C.2       1 <1>         0.2095 
     22 O22        -8.5235   -1.5950   -0.2798 O.2       1 <1>        -0.3939 
     23 N23        -7.5224    0.3094    0.3874 N.am      1 <1>        -0.2708 
     24 C24        -6.6488    1.4473    0.0763 C.3       1 <1>         0.0363 
     25 C25        -7.1449    2.7258    0.7945 C.3       1 <1>        -0.0058 
     26 C26        -7.3367    2.4840    2.3096 C.3       1 <1>         0.0654 
     27 C27        -8.3880    1.3608    2.4935 C.3       1 <1>        -0.0058 
     28 C28        -7.9409    0.0639    1.7724 C.3       1 <1>         0.0363 
     29 O29        -7.7843    3.7512    2.8407 O.3       1 <1>        -0.3630 
     30 C30        -7.7655    3.8555    4.2771 C.3       1 <1>         0.0764 
     31 H1         -1.7698    1.3183   -6.6914 H         1 <1>         0.0650 
     32 H2         -0.8886    1.3327   -9.0134 H         1 <1>         0.0625 
     33 H3         -2.2613    0.4084  -10.8644 H         1 <1>         0.0667 
     34 C34        -5.9319    2.8213    5.6345 C.2       1 <1>        -0.1153 
     35 C35        -6.3474    3.7698    4.7860 C.2       1 <1>        -0.0638 
     36 H4         -4.0088    0.3891   -6.2162 H         1 <1>         0.0631 
     37 H5         -7.2080   -0.8540  -11.9956 H         1 <1>         0.0557 
     38 H6         -7.7070   -2.2150  -10.9463 H         1 <1>         0.0557 
     39 H7         -6.3066   -2.4058  -12.0395 H         1 <1>         0.0557 
     40 H8         -4.3790   -2.0669   -5.9029 H         1 <1>         0.0598 
     41 H9         -5.2527   -2.3488   -3.5966 H         1 <1>         0.0548 
     42 H10        -9.1034   -0.9511   -4.8726 H         1 <1>         0.0548 
     43 H11        -8.2235   -0.6083   -7.1727 H         1 <1>         0.0598 
     44 H12        -7.8362    0.3541   -2.4568 H         1 <1>         0.0860 
     45 H13        -6.2658   -0.4051   -1.9759 H         1 <1>         0.0860 
     46 H14        -6.5952    1.7178   -0.9881 H         1 <1>         0.0523 
     47 H15        -5.6286    1.2041    0.4141 H         1 <1>         0.0523 
     48 H16        -8.1084    3.0345    0.3551 H         1 <1>         0.0310 
     49 H17        -6.4223    3.5473    0.6476 H         1 <1>         0.0310 
     50 H18        -6.3647    2.1803    2.7349 H         1 <1>         0.0600 
     51 H19        -9.3477    1.7025    2.0744 H         1 <1>         0.0310 
     52 H20        -8.5403    1.1326    3.5590 H         1 <1>         0.0310 
     53 H21        -8.7769   -0.6500    1.8591 H         1 <1>         0.0523 
     54 H22        -7.0802   -0.3691    2.3070 H         1 <1>         0.0523 
     55 H23        -8.4344    3.1271    4.7580 H         1 <1>         0.0741 
     56 H24        -8.1501    4.8573    4.5214 H         1 <1>         0.0741 
     57 H25        -4.8949    2.7993    5.9718 H         1 <1>         0.0290 
     58 H26        -6.6057    2.0499    6.0068 H         1 <1>         0.0290 
     59 H27        -5.6372    4.5194    4.4326 H         1 <1>         0.0695 
@<TRIPOS>BOND
     1    2    1 ar   
     2    2    3 ar   
     3    3    4 ar   
     4    4    5 ar   
     5    6    5 ar   
     6    1    6 ar   
     7    4    7 1    
     8    7    8 2    
     9    7    9 1    
    10    9   10 1    
    11    9   11 1    
    12   12   11 2    
    13    5   12 1    
    14   12   13 1    
    15   13   14 ar   
    16   14   15 ar   
    17   15   16 ar   
    18   17   16 ar   
    19   18   17 ar   
    20   13   18 ar   
    21   16   19 1    
    22   19   20 1    
    23   20   21 1    
    24   21   22 2    
    25   21   23 am   
    26   23   24 1    
    27   24   25 1    
    28   25   26 1    
    29   27   26 1    
    30   28   27 1    
    31   23   28 1    
    32   26   29 1    
    33   29   30 1    
    34    1   31 1    
    35    2   32 1    
    36    3   33 1    
    37    6   36 1    
    38   35   34 2    
    39   30   35 1    
    40   10   37 1    
    41   10   38 1    
    42   10   39 1    
    43   14   40 1    
    44   15   41 1    
    45   17   42 1    
    46   18   43 1    
    47   20   44 1    
    48   20   45 1    
    49   24   46 1    
    50   24   47 1    
    51   25   48 1    
    52   25   49 1    
    53   26   50 1    
    54   27   51 1    
    55   27   52 1    
    56   28   53 1    
    57   28   54 1    
    58   30   55 1    
    59   30   56 1    
    60   34   57 1    
    61   34   58 1    
    62   35   59 1    
@<TRIPOS>SUBSTRUCTURE
     1 ****        2 TEMP              0 ****  ****    0 ROOT 
@<TRIPOS>NORMAL
@<TRIPOS>FF_PBC
FORCE_FIELD_SETUP_FEATURE Force Field Setup information
v1.0  0 0.000000 0.000000 0.000000 0.000000 0.000000 0.000000 NONE 0 0 0 0 1 0 0 0 0 0 0 0 0
