#	Name:			PISM01054.1
#	Creating user name:	malab
#	Creation time:		Thu Jul 04 18:27:40 2019

#	Modifying user name:	malab
#	Modification time:	Thu Jul 04 18:36:28 2019

@<TRIPOS>MOLECULE
PISM01054.1
   51    52     1     1     0
SMALL
GAST_HUCK


@<TRIPOS>ATOM
      1 C1         -0.3245    6.8868   38.1359 C.3       1 <1>        -0.1025 
      2 C2         -0.8092    7.7889   39.3111 C.3       1 <1>        -0.1056 
      3 C3         -2.0108    8.6639   38.8929 C.3       1 <1>        -0.0399 
      4 C4         -1.5530    9.5939   37.7462 C.3       1 <1>         0.0352 
      5 C5         -0.7805    8.8793   36.6594 C.2       1 <1>         0.0179 
      6 C6         -0.2335    7.6626   36.8319 C.2       1 <1>        -0.0702 
      7 C7          1.0667    6.3065   38.5315 C.3       1 <1>        -0.1223 
      8 C8         -1.3096    5.7031   37.8957 C.3       1 <1>        -0.1223 
      9 H9         -2.8561    8.0397   38.5670 H         1 <1>         0.0307 
     10 C10         0.4805    7.0293   35.7048 C.2       1 <1>        -0.0855 
     11 C11        -0.1828    6.5490   34.6455 C.2       1 <1>        -0.0661 
     12 C12         0.4711    5.9322   33.4688 C.2       1 <1>         0.0821 
     13 C13        -0.6626    9.6483   35.3580 C.3       1 <1>         0.0256 
     14 H14        -1.6226    9.5926   34.8238 H         1 <1>         0.0689 
     15 C15        -0.2217    5.6135   32.3678 C.2       1 <1>         0.1117 
     16 C16         1.9241    5.6655   33.4544 C.2       1 <1>         0.2443 
     17 O17        -1.5434    5.8426   32.3221 O.3       1 <1>        -0.2456 
     18 C18        -2.1674    5.5120   31.0675 C.3       1 <1>         0.2473 
     19 O19        -3.5746    5.7822   31.2209 O.3       1 <1>        -0.2289 
     20 C20        -3.8419    6.7660   30.3717 C.2       1 <1>         0.2497 
     21 O21        -4.9557    7.2514   30.2773 O.2       1 <1>        -0.3691 
     22 C22        -2.7181    7.2152   29.5588 C.2       1 <1>         0.0294 
     23 C23        -1.7096    6.4510   29.9733 C.2       1 <1>         0.0008 
     24 C24        -2.7002    8.2900   28.5063 C.3       1 <1>        -0.0323 
     25 H1          0.0041    8.4644   39.6243 H         1 <1>         0.0057 
     26 H2         -1.0833    7.1718   40.1823 H         1 <1>         0.0057 
     27 H3         -2.3560    9.2687   39.7489 H         1 <1>         0.0307 
     28 H4         -0.8913   10.3748   38.1546 H         1 <1>         0.0723 
     29 H5         -2.4441   10.0856   37.3232 H         1 <1>         0.0723 
     30 H6          1.8131    7.1136   38.5925 H         1 <1>         0.0017 
     31 H7          1.4262    5.5634   37.8056 H         1 <1>         0.0017 
     32 H8          1.0087    5.8108   39.5128 H         1 <1>         0.0017 
     33 H10        -1.4715    5.1376   38.8259 H         1 <1>         0.0017 
     34 H11        -0.9063    5.0076   37.1454 H         1 <1>         0.0017 
     35 H12        -2.2839    6.0498   37.5236 H         1 <1>         0.0017 
     36 H13         1.5674    6.9728   35.7599 H         1 <1>         0.0435 
     37 H15        -1.2702    6.6319   34.6621 H         1 <1>         0.0568 
     38 H16         0.1282    9.2823   34.6879 H         1 <1>         0.0689 
     39 H17        -0.4389   10.7045   35.5700 H         1 <1>         0.0689 
     40 H18         0.3319    5.1715   31.5347 H         1 <1>         0.1365 
     41 O41         2.6291    6.3545   32.7375 O.2       1 <1>        -0.3736 
     42 O42         2.4882    4.6827   34.1752 O.3       1 <1>        -0.2854 
     43 C43         1.5750    3.8106   34.8697 C.3       1 <1>         0.0640 
     44 H22        -2.0393    4.4509   30.7931 H         1 <1>         0.1231 
     45 H23        -0.6973    6.5082   29.5750 H         1 <1>         0.0707 
     46 H24        -1.8529    8.9707   28.6780 H         1 <1>         0.0347 
     47 H25        -3.6347    8.8701   28.5384 H         1 <1>         0.0347 
     48 H26        -2.5987    7.8306   27.5119 H         1 <1>         0.0347 
     49 H19         2.1802    3.0406   35.3701 H         1 <1>         0.0574 
     50 H20         0.8879    3.3065   34.1719 H         1 <1>         0.0574 
     51 H21         0.9967    4.3341   35.6422 H         1 <1>         0.0574 
@<TRIPOS>BOND
     1    2    1 1    
     2    2    3 1    
     3    3    4 1    
     4    4    5 1    
     5    5    6 2    
     6    1    6 1    
     7    1    7 1    
     8    1    8 1    
     9    3    9 1    
    10    6   10 1    
    11   10   11 2    
    12   11   12 1    
    13    5   13 1    
    14   13   14 1    
    15   12   15 2    
    16   12   16 1    
    17   15   17 1    
    18   17   18 1    
    19   18   19 1    
    20   19   20 1    
    21   20   21 2    
    22   20   22 1    
    23   22   23 2    
    24   18   23 1    
    25   22   24 1    
    26    2   25 1    
    27    2   26 1    
    28    3   27 1    
    29    4   28 1    
    30    4   29 1    
    31    7   30 1    
    32    7   31 1    
    33    7   32 1    
    34    8   33 1    
    35    8   34 1    
    36    8   35 1    
    37   10   36 1    
    38   11   37 1    
    39   13   38 1    
    40   13   39 1    
    41   15   40 1    
    42   16   41 2    
    43   16   42 1    
    44   42   43 1    
    45   18   44 1    
    46   23   45 1    
    47   24   46 1    
    48   24   47 1    
    49   24   48 1    
    50   43   49 1    
    51   43   50 1    
    52   43   51 1    
@<TRIPOS>SUBSTRUCTURE
     1 ****        2 TEMP              0 ****  ****    0 ROOT 
@<TRIPOS>NORMAL
@<TRIPOS>FF_PBC
FORCE_FIELD_SETUP_FEATURE Force Field Setup information
v1.0  0 0.000000 0.000000 0.000000 0.000000 0.000000 0.000000 NONE 0 0 0 0 1 0 0 0 0 0 0 0 0
