#	Name:			PISM01176
#	Creating user name:	baoopengkun
#	Creation time:		Tue Dec 18 17:07:09 2018

#	Modifying user name:	baoopengkun
#	Modification time:	Tue Dec 18 17:10:38 2018

@<TRIPOS>MOLECULE
PISM01176
   54    56     1     1     0
SMALL
GAST_HUCK


@<TRIPOS>ATOM
      1 C1          9.7232   31.0292   -0.6809 C.3       1 <1>         0.0570 
      2 O2          8.9634   31.7988    0.2651 O.3       1 <1>        -0.3280 
      3 C3          9.3221   33.1473    0.3280 C.ar      1 <1>         0.1074 
      4 C4          8.4905   34.1114   -0.2430 C.ar      1 <1>        -0.0473 
      5 C5          8.8120   35.4745   -0.2014 C.ar      1 <1>        -0.0580 
      6 C6          9.9742   35.8729    0.4773 C.ar      1 <1>        -0.0006 
      7 O7         11.3693   32.5913    1.5017 O.3       1 <1>        -0.3339 
      8 C8         10.5023   33.5444    0.9598 C.ar      1 <1>         0.1422 
      9 C9         10.8117   34.9040    1.0465 C.ar      1 <1>         0.1169 
     10 C10        11.0903   32.2890    2.8768 C.3       1 <1>         0.0526 
     11 O11        11.9770   35.2992    1.7098 O.3       1 <1>        -0.3270 
     12 C12        13.1211   35.4368    0.8519 C.3       1 <1>         0.0572 
     13 C13        10.4385   37.3039    0.6559 C.2       1 <1>        -0.0155 
     14 C14        10.6856   38.1124   -0.5556 C.2       1 <1>        -0.0038 
     15 C15         9.7003   38.0155   -1.6978 C.3       1 <1>         0.0828 
     16 C16         8.2651   37.8866   -1.1163 C.3       1 <1>        -0.0094 
     17 C17         7.8299   36.4126   -0.9217 C.3       1 <1>        -0.0226 
     18 C18        10.6364   37.7272    1.9126 C.2       1 <1>        -0.0540 
     19 C19        11.2059   39.0098    2.3614 C.2       1 <1>        -0.0134 
     20 C20        12.1650   39.6878    1.7235 C.2       1 <1>         0.1536 
     21 C21        12.6931   39.1768    0.4391 C.2       1 <1>         0.1391 
     22 C22        11.7516   38.9170   -0.6542 C.2       1 <1>        -0.0143 
     23 O23        13.8857   38.9994    0.2476 O.2       1 <1>        -0.4348 
     24 O24        12.6182   40.8329    2.2739 O.3       1 <1>        -0.3002 
     25 C25        13.6751   41.5036    1.5586 C.3       1 <1>         0.0662 
     26 N26         9.7293   39.2487   -2.4904 N.am      1 <1>        -0.2705 
     27 C27        10.0829   39.2306   -3.7955 C.2       1 <1>         0.1753 
     28 C28        10.1056   40.5342   -4.5485 C.3       1 <1>         0.0258 
     29 O29        10.3832   38.2068   -4.3856 O.2       1 <1>        -0.3972 
     30 H1         10.7941   31.0173   -0.4267 H         1 <1>         0.0574 
     31 H2          9.5954   31.4328   -1.6975 H         1 <1>         0.0574 
     32 H3          9.3479   29.9956   -0.6618 H         1 <1>         0.0574 
     33 H4          7.5776   33.7794   -0.7271 H         1 <1>         0.0376 
     34 H5         10.0738   31.8792    2.9871 H         1 <1>         0.0565 
     35 H6         11.1936   33.1892    3.5032 H         1 <1>         0.0565 
     36 H7         11.8145   31.5353    3.2188 H         1 <1>         0.0565 
     37 H8         13.3702   34.4714    0.3844 H         1 <1>         0.0575 
     38 H9         13.9734   35.7643    1.4650 H         1 <1>         0.0575 
     39 H10        12.9479   36.1879    0.0658 H         1 <1>         0.0575 
     40 H11         9.9501   37.1252   -2.2988 H         1 <1>         0.0753 
     41 H12         7.5499   38.3381   -1.8254 H         1 <1>         0.0335 
     42 H13         8.1748   38.4480   -0.1714 H         1 <1>         0.0335 
     43 H14         7.6615   35.9836   -1.9243 H         1 <1>         0.0413 
     44 H15         6.8713   36.3871   -0.3779 H         1 <1>         0.0413 
     45 H16        10.3627   37.0572    2.7295 H         1 <1>         0.0649 
     46 H17        10.8383   39.4196    3.3027 H         1 <1>         0.0579 
     47 H18        11.9842   39.4485   -1.5758 H         1 <1>         0.0486 
     48 H19        13.3893   41.7427    0.5218 H         1 <1>         0.0593 
     49 H20        14.6058   40.9157    1.5669 H         1 <1>         0.0593 
     50 H21        13.8728   42.4491    2.0843 H         1 <1>         0.0593 
     51 H22         9.4860   40.1085   -2.0364 H         1 <1>         0.1885 
     52 H23         9.0976   40.9739   -4.5538 H         1 <1>         0.0467 
     53 H24        10.4303   40.3771   -5.5883 H         1 <1>         0.0467 
     54 H25        10.8041   41.2296   -4.0605 H         1 <1>         0.0467 
@<TRIPOS>BOND
     1    2    1 1    
     2    2    3 1    
     3    3    4 ar   
     4    5    4 ar   
     5    6    5 ar   
     6    8    7 1    
     7    3    8 ar   
     8    8    9 ar   
     9    9    6 ar   
    10    7   10 1    
    11    9   11 1    
    12   11   12 1    
    13    6   13 1    
    14   13   14 1    
    15   14   15 1    
    16   15   16 1    
    17   16   17 1    
    18    5   17 1    
    19   13   18 2    
    20   18   19 1    
    21   19   20 2    
    22   20   21 1    
    23   21   22 1    
    24   14   22 2    
    25   21   23 2    
    26   20   24 1    
    27   24   25 1    
    28   15   26 1    
    29   26   27 am   
    30   27   28 1    
    31   27   29 2    
    32    1   30 1    
    33    1   31 1    
    34    1   32 1    
    35    4   33 1    
    36   10   34 1    
    37   10   35 1    
    38   10   36 1    
    39   12   37 1    
    40   12   38 1    
    41   12   39 1    
    42   15   40 1    
    43   16   41 1    
    44   16   42 1    
    45   17   43 1    
    46   17   44 1    
    47   18   45 1    
    48   19   46 1    
    49   22   47 1    
    50   25   48 1    
    51   25   49 1    
    52   25   50 1    
    53   26   51 1    
    54   28   52 1    
    55   28   53 1    
    56   28   54 1    
@<TRIPOS>SUBSTRUCTURE
     1 ****        2 TEMP              0 ****  ****    0 ROOT 
@<TRIPOS>NORMAL
@<TRIPOS>FF_PBC
FORCE_FIELD_SETUP_FEATURE Force Field Setup information
v1.0  0 0.000000 0.000000 0.000000 0.000000 0.000000 0.000000 NONE 0 0 0 0 1 0 0 0 0 0 0 0 0
