#	Name:			PISM01058.1
#	Creating user name:	malab
#	Creation time:		Tue Jul 02 23:22:21 2019

#	Modifying user name:	malab
#	Modification time:	Tue Jul 02 23:25:12 2019

@<TRIPOS>MOLECULE
PISM01058.1
   51    52     1     1     0
SMALL
GAST_HUCK


@<TRIPOS>ATOM
      1 C1        -13.7650   10.2435   11.0331 C.3       1 <1>        -0.0468 
      2 C2        -14.9601   10.3082   12.0158 C.3       1 <1>         0.0374 
      3 C3        -15.2596   11.7726   11.9521 C.2       1 <1>         0.2129 
      4 O4        -14.7083   12.3676   10.8950 O.3       1 <1>        -0.3654 
      5 C5        -14.1792   11.3563   10.0159 C.3       1 <1>         0.0381 
      6 O6        -15.9280   12.3674   12.7811 O.2       1 <1>        -0.3724 
      7 C7        -13.6099    8.7990   10.4718 C.3       1 <1>        -0.0726 
      8 C8        -12.4491   10.6340   11.7722 C.3       1 <1>        -0.0726 
      9 C9        -15.3088   10.9204    9.1003 C.2       1 <1>        -0.1087 
     10 C10       -16.4903   11.5480    9.0182 C.2       1 <1>        -0.0245 
     11 C11       -17.5976   11.1176    8.1361 C.2       1 <1>         0.1499 
     12 C12       -17.3383   10.5519    6.7955 C.2       1 <1>         0.2678 
     13 O13       -16.2269   10.6548    6.3012 O.2       1 <1>        -0.3660 
     14 O14       -18.3339    9.9405    6.1344 O.3       1 <1>        -0.2827 
     15 C15       -17.9537    9.4302    4.8398 C.3       1 <1>         0.0643 
     16 C16       -18.8581   11.2477    8.5720 C.2       1 <1>         0.1699 
     17 O17       -19.0818   11.7563    9.7950 O.3       1 <1>        -0.2038 
     18 C18       -20.4680   11.8055   10.1706 C.3       1 <1>         0.2613 
     19 C19       -20.5706   12.6149   11.4402 C.2       1 <1>         0.0035 
     20 C20       -21.2695   13.7283   11.2281 C.2       1 <1>         0.0296 
     21 C21       -21.6381   13.6365    9.8195 C.2       1 <1>         0.2499 
     22 O22       -21.2152   12.5488    9.1873 O.3       1 <1>        -0.2265 
     23 O23       -22.2942   14.4923    9.2524 O.2       1 <1>        -0.3691 
     24 C24       -21.6086   14.8160   12.2103 C.3       1 <1>        -0.0323 
     25 C25       -13.0568   11.9684    9.1908 C.2       1 <1>        -0.1019 
     26 C26       -12.3589   13.0270    9.6286 C.2       1 <1>        -0.0912 
     27 C27       -12.7558   11.3507    7.8405 C.3       1 <1>        -0.0470 
     28 H1        -14.7133    9.9707   13.0333 H         1 <1>         0.0506 
     29 H2        -15.8438    9.7657   11.6483 H         1 <1>         0.0506 
     30 H3        -14.5310    8.4250   10.0037 H         1 <1>         0.0220 
     31 H4        -13.3651    8.1100   11.2946 H         1 <1>         0.0220 
     32 H5        -12.7938    8.7513    9.7384 H         1 <1>         0.0220 
     33 H6        -12.2162    9.9047   12.5631 H         1 <1>         0.0220 
     34 H7        -11.6047   10.6511   11.0667 H         1 <1>         0.0220 
     35 H8        -12.5320   11.6239   12.2448 H         1 <1>         0.0220 
     36 H9        -15.1537   10.0484    8.4685 H         1 <1>         0.0366 
     37 H10       -16.6789   12.4284    9.6328 H         1 <1>         0.1072 
     38 H11       -17.1560    8.6748    4.9261 H         1 <1>         0.0575 
     39 H12       -17.6208   10.2402    4.1709 H         1 <1>         0.0575 
     40 H13       -18.8364    8.9516    4.3907 H         1 <1>         0.0575 
     41 H14       -19.6757   10.9349    7.9163 H         1 <1>         0.1851 
     42 H15       -20.9001   10.8003   10.3140 H         1 <1>         0.1262 
     43 H16       -20.1266   12.3292   12.3935 H         1 <1>         0.0710 
     44 H17       -22.4189   15.4467   11.8146 H         1 <1>         0.0347 
     45 H18       -20.7208   15.4418   12.3848 H         1 <1>         0.0347 
     46 H19       -21.9336   14.3765   13.1653 H         1 <1>         0.0347 
     47 H20       -12.5641   13.4925   10.5913 H         1 <1>         0.0748 
     48 H21       -11.5578   13.4712    9.0398 H         1 <1>         0.0748 
     49 H22       -13.5760   11.5750    7.1421 H         1 <1>         0.0379 
     50 H23       -12.6475   10.2616    7.9204 H         1 <1>         0.0379 
     51 H24       -11.8265   11.7435    7.4015 H         1 <1>         0.0379 
@<TRIPOS>BOND
     1    2    1 1    
     2    2    3 1    
     3    3    4 1    
     4    4    5 1    
     5    1    5 1    
     6    3    6 2    
     7    1    7 1    
     8    1    8 1    
     9    5    9 1    
    10    9   10 2    
    11   10   11 1    
    12   11   12 1    
    13   12   13 2    
    14   12   14 1    
    15   14   15 1    
    16   11   16 2    
    17   16   17 1    
    18   17   18 1    
    19   18   19 1    
    20   19   20 2    
    21   20   21 1    
    22   21   22 1    
    23   18   22 1    
    24   21   23 2    
    25   20   24 1    
    26    5   25 1    
    27   25   26 2    
    28   25   27 1    
    29    2   28 1    
    30    2   29 1    
    31    7   30 1    
    32    7   31 1    
    33    7   32 1    
    34    8   33 1    
    35    8   34 1    
    36    8   35 1    
    37    9   36 1    
    38   10   37 1    
    39   15   38 1    
    40   15   39 1    
    41   15   40 1    
    42   16   41 1    
    43   18   42 1    
    44   19   43 1    
    45   24   44 1    
    46   24   45 1    
    47   24   46 1    
    48   26   47 1    
    49   26   48 1    
    50   27   49 1    
    51   27   50 1    
    52   27   51 1    
@<TRIPOS>SUBSTRUCTURE
     1 ****        2 TEMP              0 ****  ****    0 ROOT 
@<TRIPOS>NORMAL
@<TRIPOS>FF_PBC
FORCE_FIELD_SETUP_FEATURE Force Field Setup information
v1.0  0 0.000000 0.000000 0.000000 0.000000 0.000000 0.000000 NONE 0 0 0 0 1 0 0 0 0 0 0 0 0
