#	Name:			PISM00711
#	Creating user name:	baoopengkun
#	Creation time:		Sun Jan 20 21:34:04 2019

#	Modifying user name:	baoopengkun
#	Modification time:	Sun Jan 20 21:38:57 2019

@<TRIPOS>MOLECULE
PISM00711
   82    85     1     1     0
SMALL
GAST_HUCK


@<TRIPOS>ATOM
      1 C1          1.3308    3.4810    8.4796 C.3       1 <1>        -0.0163 
      2 C2          1.0160    2.3718    9.5253 C.3       1 <1>         0.0819 
      3 C3          2.2971    1.5897    9.9350 C.3       1 <1>         0.0835 
      4 C4          3.3829    2.5741   10.4461 C.3       1 <1>        -0.0028 
      5 C5          3.6935    3.6265    9.3429 C.3       1 <1>         0.0681 
      6 C6          2.4436    4.4810    8.9312 C.3       1 <1>        -0.0055 
      7 C7          2.8298    5.4922    7.7767 C.3       1 <1>        -0.0276 
      8 C8          3.8831    4.9276    6.7682 C.3       1 <1>        -0.0063 
      9 C9          5.3202    4.9317    7.3970 C.3       1 <1>         0.0801 
     10 O10         5.4675    5.2843    8.7937 O.3       1 <1>        -0.2763 
     11 C11         4.8203    4.5537    9.7186 C.2       1 <1>         0.2374 
     12 O12         5.1457    4.6703   10.8880 O.2       1 <1>        -0.3701 
     13 C13         1.6269    6.1136    7.0020 C.3       1 <1>        -0.0487 
     14 C14         2.0707    7.3235    6.1147 C.3       1 <1>        -0.0468 
     15 C15         3.4294    7.1198    5.3533 C.3       1 <1>        -0.0257 
     16 C16         3.7371    5.5975    5.3576 C.3       1 <1>        -0.0298 
     17 C17         4.8414    5.3782    4.2950 C.3       1 <1>        -0.0491 
     18 C18         4.5498    6.4936    3.2489 C.3       1 <1>        -0.0491 
     19 C19         3.3816    7.3735    3.8033 C.3       1 <1>        -0.0304 
     20 O20        -0.0259    1.5027    9.0439 O.3       1 <1>        -0.3892 
     21 O21         2.8666    0.8626    8.8287 O.3       1 <1>        -0.3891 
     22 H1          0.3881    4.0146    8.2830 H         1 <1>         0.0298 
     23 C23         1.9346    5.3279   10.1518 C.3       1 <1>        -0.0568 
     24 C24         4.5744    7.9635    6.0018 C.3       1 <1>        -0.0590 
     25 C25         3.4171    8.8475    3.2606 C.3       1 <1>        -0.0120 
     26 C26         3.3775    8.8562    1.6941 C.3       1 <1>         0.0841 
     27 C27         3.4567   10.2879    1.0594 C.3       1 <1>         0.0841 
     28 C28         4.0578   10.3078   -0.3947 C.3       1 <1>        -0.0130 
     29 C29         5.6075   10.5900   -0.4036 C.3       1 <1>        -0.0417 
     30 C30         6.2203   10.5688   -1.8377 C.3       1 <1>        -0.0623 
     31 C31         6.4243    9.6001    0.4798 C.3       1 <1>        -0.0623 
     32 C32         2.2620    9.7145    3.8401 C.3       1 <1>        -0.0597 
     33 O33         2.1777    8.1797    1.2628 O.3       1 <1>        -0.3890 
     34 O34         2.1537   10.8978    1.1318 O.3       1 <1>        -0.3890 
     35 C35         3.3058   11.3502   -1.2797 C.3       1 <1>        -0.0597 
     36 H2          1.6389    2.9856    7.5469 H         1 <1>         0.0298 
     37 H3          0.5787    2.8140   10.4333 H         1 <1>         0.0619 
     38 H4          2.0488    0.8806   10.7463 H         1 <1>         0.0621 
     39 H5          4.2970    1.9946   10.6623 H         1 <1>         0.0319 
     40 H6          3.0787    3.0379   11.3947 H         1 <1>         0.0319 
     41 H7          4.0576    2.9901    8.5278 H         1 <1>         0.0560 
     42 H8          3.2993    6.3623    8.2568 H         1 <1>         0.0311 
     43 H9          3.6285    3.8784    6.5459 H         1 <1>         0.0332 
     44 H10         5.9303    5.7192    6.9424 H         1 <1>         0.0616 
     45 H11         5.8462    3.9829    7.1975 H         1 <1>         0.0616 
     46 H12         0.8444    6.4815    7.6822 H         1 <1>         0.0268 
     47 H13         1.1526    5.3377    6.3811 H         1 <1>         0.0268 
     48 H14         2.1511    8.2024    6.7753 H         1 <1>         0.0271 
     49 H15         1.2467    7.5215    5.4111 H         1 <1>         0.0271 
     50 H16         2.8576    5.1246    4.8783 H         1 <1>         0.0310 
     51 H17         4.7912    4.3650    3.8595 H         1 <1>         0.0268 
     52 H18         5.8566    5.5049    4.6955 H         1 <1>         0.0268 
     53 H19         4.2808    6.0455    2.2772 H         1 <1>         0.0268 
     54 H20         5.4592    7.1000    3.1016 H         1 <1>         0.0268 
     55 H21         2.4399    6.9349    3.4301 H         1 <1>         0.0310 
     56 H22         0.1722    1.0889    8.2113 H         1 <1>         0.2099 
     57 H23         2.3156    0.1542    8.5130 H         1 <1>         0.2099 
     58 H24         1.0510    5.9223    9.8865 H         1 <1>         0.0237 
     59 H25         2.7115    6.0262   10.4985 H         1 <1>         0.0237 
     60 H26         1.6431    4.7379   11.0260 H         1 <1>         0.0237 
     61 H27         4.7034    7.7373    7.0663 H         1 <1>         0.0235 
     62 H28         4.3474    9.0365    5.9449 H         1 <1>         0.0235 
     63 H29         5.5400    7.8058    5.5024 H         1 <1>         0.0235 
     64 H30         4.3705    9.3089    3.5650 H         1 <1>         0.0327 
     65 H31         4.2310    8.2671    1.3351 H         1 <1>         0.0622 
     66 H32         4.0832   10.9474    1.6797 H         1 <1>         0.0622 
     67 H33         3.8826    9.3277   -0.8670 H         1 <1>         0.0326 
     68 H34         5.7778   11.6011    0.0062 H         1 <1>         0.0299 
     69 H35         5.9404    9.6399   -2.3575 H         1 <1>         0.0232 
     70 H36         7.3194   10.6212   -1.7998 H         1 <1>         0.0232 
     71 H37         5.8957   11.4287   -2.4406 H         1 <1>         0.0232 
     72 H38         6.2946    8.5694    0.1161 H         1 <1>         0.0232 
     73 H39         6.1352    9.6542    1.5388 H         1 <1>         0.0232 
     74 H40         7.4985    9.8395    0.4407 H         1 <1>         0.0232 
     75 H41         2.3522   10.7641    3.5287 H         1 <1>         0.0233 
     76 H42         2.2737    9.7308    4.9351 H         1 <1>         0.0233 
     77 H43         1.2884    9.3284    3.5029 H         1 <1>         0.0233 
     78 H44         2.1300    8.0309    0.3235 H         1 <1>         0.2099 
     79 H45         1.4685   10.3433    0.7728 H         1 <1>         0.2099 
     80 H46         3.6337   11.3208   -2.3272 H         1 <1>         0.0233 
     81 H47         3.4662   12.3650   -0.8847 H         1 <1>         0.0233 
     82 H48         2.2244   11.1546   -1.3106 H         1 <1>         0.0233 
@<TRIPOS>BOND
     1    2    1 1    
     2    2    3 1    
     3    3    4 1    
     4    4    5 1    
     5    5    6 1    
     6    1    6 1    
     7    6    7 1    
     8    7    8 1    
     9    8    9 1    
    10    9   10 1    
    11   10   11 1    
    12   11   12 2    
    13    5   11 1    
    14    7   13 1    
    15   13   14 1    
    16   14   15 1    
    17   15   16 1    
    18    8   16 1    
    19   16   17 1    
    20   17   18 1    
    21   18   19 1    
    22   15   19 1    
    23    2   20 1    
    24    3   21 1    
    25    1   22 1    
    26    6   23 1    
    27   15   24 1    
    28   19   25 1    
    29   25   26 1    
    30   26   27 1    
    31   27   28 1    
    32   28   29 1    
    33   29   30 1    
    34   29   31 1    
    35   25   32 1    
    36   26   33 1    
    37   27   34 1    
    38   28   35 1    
    39    1   36 1    
    40    2   37 1    
    41    3   38 1    
    42    4   39 1    
    43    4   40 1    
    44    5   41 1    
    45    7   42 1    
    46    8   43 1    
    47    9   44 1    
    48    9   45 1    
    49   13   46 1    
    50   13   47 1    
    51   14   48 1    
    52   14   49 1    
    53   16   50 1    
    54   17   51 1    
    55   17   52 1    
    56   18   53 1    
    57   18   54 1    
    58   19   55 1    
    59   20   56 1    
    60   21   57 1    
    61   23   58 1    
    62   23   59 1    
    63   23   60 1    
    64   24   61 1    
    65   24   62 1    
    66   24   63 1    
    67   25   64 1    
    68   26   65 1    
    69   27   66 1    
    70   28   67 1    
    71   29   68 1    
    72   30   69 1    
    73   30   70 1    
    74   30   71 1    
    75   31   72 1    
    76   31   73 1    
    77   31   74 1    
    78   32   75 1    
    79   32   76 1    
    80   32   77 1    
    81   33   78 1    
    82   34   79 1    
    83   35   80 1    
    84   35   81 1    
    85   35   82 1    
@<TRIPOS>SUBSTRUCTURE
     1 ****        2 TEMP              0 ****  ****    0 ROOT 
@<TRIPOS>NORMAL
@<TRIPOS>FF_PBC
FORCE_FIELD_SETUP_FEATURE Force Field Setup information
v1.0  0 0.000000 0.000000 0.000000 0.000000 0.000000 0.000000 NONE 0 0 0 0 1 0 0 0 0 0 0 0 0
