#	Name:			PISM00197
#	Creating user name:	14062
#	Creation time:		Wed Jun 19 15:12:34 2019

#	Modifying user name:	14062
#	Modification time:	Wed Jun 19 15:16:10 2019

@<TRIPOS>MOLECULE
PISM00197
   33    34     1     1     0
SMALL
GAST_HUCK


@<TRIPOS>ATOM
      1 C1         -7.0654    0.1250   -0.4179 C.ar      1 BENZYL     -0.0701 
      2 C1         -5.7908    0.6537   -0.2160 C.ar      1 BENZYL     -0.0627 
      3 C2         -4.9434    0.8737   -1.3076 C.ar      1 BENZYL     -0.0239 
      4 C3         -5.3756    0.5784   -2.6111 C.ar      1 BENZYL     -0.0096 
      5 C4         -4.4399    0.6819   -3.6528 C.ar      1 BENZYL     -0.0546 
      6 C5         -3.1609    1.1989   -3.4286 C.ar      1 BENZYL     -0.0625 
      7 C6         -2.7716    1.5671   -2.1406 C.ar      1 BENZYL     -0.0629 
      8 C7         -3.6606    1.3876   -1.0796 C.ar      1 BENZYL     -0.0568 
      9 C9         -6.7111    0.1878   -2.8239 C.ar      1 BENZYL     -0.0094 
     10 C10        -7.5123   -0.1201   -1.7168 C.ar      1 BENZYL     -0.0580 
     11 C11        -7.3438    0.0880   -4.2287 C.3       1 BENZYL      0.0949 
     12 C12        -8.7867    0.5413   -4.2329 C.2       1 BENZYL      0.2469 
     13 O13        -9.0921    1.7048   -4.4420 O.2       1 BENZYL     -0.3669 
     14 O14        -9.7134   -0.3914   -4.0062 O.3       1 BENZYL     -0.2909 
     15 C15        -7.1744   -1.3531   -4.7871 C.3       1 BENZYL     -0.0219 
     16 H1         -7.7066   -0.0925    0.4313 H         1 BENZYL      0.0596 
     17 H2         -5.4690    0.8846    0.7951 H         1 BENZYL      0.0546 
     18 H3         -4.6670    0.3591   -4.6606 H         1 BENZYL      0.0628 
     19 H4         -2.4662    1.3131   -4.2556 H         1 BENZYL      0.0602 
     20 H5         -1.7850    1.9855   -1.9651 H         1 BENZYL      0.0616 
     21 H6         -3.3401    1.6520   -0.0764 H         1 BENZYL      0.0609 
     22 H7         -8.4965   -0.5551   -1.8462 H         1 BENZYL      0.0535 
     23 H8         -6.8597    0.8066   -4.9058 H         1 BENZYL      0.0722 
     24 H9        -10.5879   -0.0187   -4.0303 H         1 BENZYL      0.2541 
     25 C25        -7.6556   -1.4738   -6.2597 C.3       1 BENZYL     -0.0516 
     26 H11        -7.7385   -2.0546   -4.1514 H         1 BENZYL      0.0316 
     27 H12        -6.1121   -1.6409   -4.7373 H         1 BENZYL      0.0316 
     28 H10        -7.0842   -0.7755   -6.8939 H         1 BENZYL      0.0266 
     29 H13        -8.7233   -1.2099   -6.3339 H         1 BENZYL      0.0266 
     30 C30        -7.4617   -2.9161   -6.7964 C.3       1 BENZYL     -0.0650 
     31 H14        -8.0367   -3.6323   -6.1889 H         1 BENZYL      0.0230 
     32 H15        -6.3980   -3.1997   -6.7647 H         1 BENZYL      0.0230 
     33 H16        -7.8102   -2.9830   -7.8393 H         1 BENZYL      0.0230 
@<TRIPOS>BOND
     1    2    3 ar   
     2    3    4 ar   
     3    3    8 ar   
     4    8    7 ar   
     5    7    6 ar   
     6    6    5 ar   
     7    5    4 ar   
     8    2    1 ar   
     9    4    9 ar   
    10    9   10 ar   
    11    1   10 ar   
    12    9   11 1    
    13   11   12 1    
    14   12   13 2    
    15   12   14 1    
    16   11   15 1    
    17    1   16 1    
    18    2   17 1    
    19    5   18 1    
    20    6   19 1    
    21    7   20 1    
    22    8   21 1    
    23   10   22 1    
    24   11   23 1    
    25   14   24 1    
    26   15   25 1    
    27   15   26 1    
    28   15   27 1    
    29   25   28 1    
    30   25   29 1    
    31   25   30 1    
    32   30   31 1    
    33   30   32 1    
    34   30   33 1    
@<TRIPOS>SUBSTRUCTURE
     1 BENZYL      2 PERM              0 ****  ****    0 ROOT 
@<TRIPOS>NORMAL
@<TRIPOS>FF_PBC
FORCE_FIELD_SETUP_FEATURE Force Field Setup information
v1.0  0 0.000000 0.000000 0.000000 0.000000 0.000000 0.000000 NONE 0 0 0 0 1 0 0 0 0 0 0 0 0
