#	Name:			PISM00906
#	Creating user name:	baoopengkun
#	Creation time:		Fri Dec 14 10:31:16 2018

#	Modifying user name:	baoopengkun
#	Modification time:	Fri Dec 14 10:34:27 2018

@<TRIPOS>MOLECULE
PISM00906
   29    31     1     1     0
SMALL
GAST_HUCK


@<TRIPOS>ATOM
      1 C1         19.0616   11.7920   -9.3964 C.ar      1 <1>        -0.0499 
      2 C2         17.7342   12.1232   -9.1034 C.ar      1 <1>        -0.0632 
      3 C3         17.1178   13.2289   -9.7079 C.ar      1 <1>        -0.0264 
      4 C4         17.8007   14.0472  -10.6224 C.ar      1 <1>         0.1570 
      5 C5         19.1121   13.6767  -10.9392 C.ar      1 <1>         0.0974 
      6 C6         19.7235   12.5886  -10.3287 C.ar      1 <1>         0.0624 
      7 C7         21.1200   12.5172  -10.8924 C.2       1 <1>         0.2411 
      8 N8         21.2878   13.5000  -11.7946 N.am      1 <1>        -0.1425 
      9 C9         20.1525   14.2165  -11.8936 C.2       1 <1>         0.2362 
     10 O10        21.9481   11.6861  -10.5623 O.2       1 <1>        -0.3671 
     11 O11        19.9904   15.1578  -12.6496 O.2       1 <1>        -0.3747 
     12 C12        22.4867   13.7150  -12.5856 C.3       1 <1>         0.2212 
     13 O13        22.5715   12.6713  -13.5762 O.3       1 <1>        -0.2348 
     14 C14        23.6791   12.0007  -13.2832 C.2       1 <1>         0.2491 
     15 C15        24.4348   12.5047  -12.1418 C.2       1 <1>         0.0288 
     16 C16        23.7172   13.5467  -11.7265 C.2       1 <1>        -0.0059 
     17 C17        25.7133   11.9618  -11.5656 C.3       1 <1>        -0.0323 
     18 O18        24.0396   11.0355  -13.9349 O.2       1 <1>        -0.3691 
     19 N19        17.2080   15.1431  -11.1595 N.pl3     1 <1>         0.1276 
     20 O20        15.9985   15.1555  -11.2310 O.2       1 <1>        -0.1109 
     21 O21        17.9151   16.0617  -11.5015 O.2       1 <1>        -0.1109 
     22 H1         19.5601   10.9512   -8.9247 H         1 <1>         0.0575 
     23 H2         17.1765   11.5151   -8.3969 H         1 <1>         0.0629 
     24 H3         16.0872   13.4512   -9.4490 H         1 <1>         0.0567 
     25 H4         22.4894   14.7013  -13.0791 H         1 <1>         0.1152 
     26 H5         23.9714   14.1842  -10.8808 H         1 <1>         0.0702 
     27 H6         25.7972   10.8873  -11.7873 H         1 <1>         0.0347 
     28 H7         25.7311   12.1014  -10.4743 H         1 <1>         0.0347 
     29 H8         26.5693   12.4887  -12.0121 H         1 <1>         0.0347 
@<TRIPOS>BOND
     1    2    1 ar   
     2    2    3 ar   
     3    3    4 ar   
     4    4    5 ar   
     5    5    6 ar   
     6    1    6 ar   
     7    6    7 1    
     8    7    8 am   
     9    8    9 am   
    10    5    9 1    
    11    7   10 2    
    12    9   11 2    
    13    8   12 1    
    14   12   13 1    
    15   13   14 1    
    16   14   15 1    
    17   15   16 2    
    18   12   16 1    
    19   15   17 1    
    20   14   18 2    
    21    4   19 1    
    22   19   20 2    
    23   19   21 2    
    24    1   22 1    
    25    2   23 1    
    26    3   24 1    
    27   12   25 1    
    28   16   26 1    
    29   17   27 1    
    30   17   28 1    
    31   17   29 1    
@<TRIPOS>SUBSTRUCTURE
     1 ****        2 TEMP              0 ****  ****    0 ROOT 
@<TRIPOS>NORMAL
@<TRIPOS>FF_PBC
FORCE_FIELD_SETUP_FEATURE Force Field Setup information
v1.0  0 0.000000 0.000000 0.000000 0.000000 0.000000 0.000000 NONE 0 0 0 0 1 0 0 0 0 0 0 0 0
