#	Name:			M00654
#	Creating user name:	XiyangLee
#	Creation time:		Tue Aug 31 18:17:57 2021

#	Modifying user name:	XiyangLee
#	Modification time:	Tue Aug 31 18:18:31 2021

@<TRIPOS>MOLECULE
M00654
   27    27     1     1     1
SMALL
GAST_HUCK
****
From 3DB ct
@<TRIPOS>ATOM
      1 I           6.5448   -0.6735    0.4852 I         1 <1>        -0.0533 
      2 C           4.5684   -0.2107    0.1804 C.ar      1 <1>         0.0203 
      3 C           3.6716   -1.1903   -0.2534 C.ar      1 <1>        -0.0456 
      4 H           4.0162   -2.2020   -0.4412 H         1 <1>         0.0717 
      5 C           2.3285   -0.8553   -0.4464 C.ar      1 <1>        -0.0105 
      6 H           1.6430   -1.6006   -0.8318 H         1 <1>         0.0603 
      7 C           1.9073    0.4466   -0.1501 C.ar      1 <1>         0.1416 
      8 N           0.5494    0.8530   -0.2335 N.am      1 <1>        -0.2164 
      9 H           0.3773    1.8135   -0.4470 H         1 <1>         0.2321 
     10 C          -0.4861    0.0221    0.0254 C.2       1 <1>         0.2109 
     11 O          -0.3460   -1.1369    0.3758 O.2       1 <1>        -0.3822 
     12 C          -1.8886    0.5625   -0.1120 C.3       1 <1>         0.0623 
     13 H          -2.0130    1.3992    0.5936 H         1 <1>         0.0535 
     14 H          -2.0180    0.9419   -1.1379 H         1 <1>         0.0535 
     15 C          -2.9631   -0.5188    0.1764 C.3       1 <1>         0.0661 
     16 H          -2.8540   -0.8941    1.2060 H         1 <1>         0.0544 
     17 H          -2.8436   -1.3626   -0.5210 H         1 <1>         0.0544 
     18 C          -4.3541    0.0311    0.0186 C.2       1 <1>         0.2358 
     19 O          -5.3403   -0.8518    0.2270 O.3       1 <1>        -0.2801 
     20 C          -6.6584   -0.2920    0.0661 C.3       1 <1>         0.0658 
     21 H          -7.3908   -1.0906    0.2549 H         1 <1>         0.0577 
     22 H          -6.8107    0.0846   -0.9582 H         1 <1>         0.0577 
     23 H          -6.8376    0.5220    0.7868 H         1 <1>         0.0577 
     24 O          -4.5490    1.1993   -0.2786 O.2       1 <1>        -0.3703 
     25 N           2.8007    1.3874    0.2180 N.ar      1 <1>        -0.2815 
     26 C           4.1035    1.0885    0.4025 C.ar      1 <1>         0.0041 
     27 H           4.7875    1.8655    0.7254 H         1 <1>         0.0804 
@<TRIPOS>BOND
     1    1    2 1    
     2    2    3 ar   
     3    3    4 1    
     4    3    5 ar   
     5    5    6 1    
     6    5    7 ar   
     7    7    8 1    
     8    8    9 1    
     9    8   10 am   
    10   10   11 2    
    11   10   12 1    
    12   12   13 1    
    13   12   14 1    
    14   12   15 1    
    15   15   16 1    
    16   15   17 1    
    17   15   18 1    
    18   18   19 1    
    19   19   20 1    
    20   20   21 1    
    21   20   22 1    
    22   20   23 1    
    23   18   24 2    
    24    7   25 ar   
    25   25   26 ar   
    26   26   27 1    
    27   26    2 ar   
@<TRIPOS>SUBSTRUCTURE
     1 ****        1 TEMP              0 ****  ****    0 ROOT 
@<TRIPOS>SET
UNITY_3DHIT     STATIC     ATOMS    <user>   **** Atoms matching 3D or FLEX Search
0
@<TRIPOS>NORMAL
@<TRIPOS>FF_PBC
FORCE_FIELD_SETUP_FEATURE Force Field Setup information
v1.0  0 0.000000 0.000000 0.000000 0.000000 0.000000 0.000000 NONE 0 0 0 0 1 0 0 0 0 0 0 0 0
