#	Name:			PISM00918
#	Creating user name:	baoopengkun
#	Creation time:		Fri Dec 14 10:31:16 2018

#	Modifying user name:	baoopengkun
#	Modification time:	Fri Dec 14 10:55:04 2018

@<TRIPOS>MOLECULE
PISM00918
   34    36     1     1     0
SMALL
GAST_HUCK


@<TRIPOS>ATOM
      1 C1         23.2860    9.6449   -8.6396 C.ar      1 <1>        -0.0145 
      2 C2         23.5459    8.5497   -7.8034 C.ar      1 <1>         0.0720 
      3 C3         24.8514    8.0372   -7.6974 C.ar      1 <1>        -0.0299 
      4 C4         25.9100    8.5649   -8.4484 C.ar      1 <1>        -0.0474 
      5 C5         25.6273    9.6445   -9.2833 C.ar      1 <1>         0.0608 
      6 C6         24.3479   10.1717   -9.3731 C.ar      1 <1>         0.0637 
      7 C7         24.4454   11.3107  -10.3571 C.2       1 <1>         0.2418 
      8 N8         25.7128   11.4166  -10.8018 N.am      1 <1>        -0.1418 
      9 C9         26.4747   10.4730  -10.2167 C.2       1 <1>         0.2355 
     10 O10        23.5017   12.0096  -10.6843 O.2       1 <1>        -0.3668 
     11 O11        27.6669   10.2982  -10.4001 O.2       1 <1>        -0.3726 
     12 C12        26.1926   12.4227  -11.7323 C.3       1 <1>         0.2214 
     13 O13        26.2072   13.6980  -11.0604 O.3       1 <1>        -0.2348 
     14 C14        25.3350   14.4506  -11.7203 C.2       1 <1>         0.2491 
     15 C15        24.6903   13.8100  -12.8615 C.2       1 <1>         0.0288 
     16 C16        25.2160   12.5866  -12.8723 C.2       1 <1>        -0.0059 
     17 C17        23.6649   14.3909  -13.7960 C.3       1 <1>        -0.0323 
     18 O18        25.1014   15.6019  -11.3944 O.2       1 <1>        -0.3691 
     19 N19        22.5232    8.0064   -7.0974 N.pl3     1 <1>        -0.2361 
     20 C20        22.3387    6.7140   -7.0308 C.2       1 <1>         0.1988 
     21 O21        23.0553    5.9087   -7.6012 O.2       1 <1>        -0.3792 
     22 C22        21.1796    6.1850   -6.2243 C.3       1 <1>         0.0314 
     23 H1         22.2933   10.0734   -8.7244 H         1 <1>         0.0597 
     24 H2         25.0582    7.2194   -7.0149 H         1 <1>         0.0574 
     25 H3         26.9137    8.1571   -8.3864 H         1 <1>         0.0651 
     26 H4         27.2004   12.1891  -12.1145 H         1 <1>         0.1152 
     27 H5         24.9717   11.8079  -13.5936 H         1 <1>         0.0702 
     28 H6         24.1516   14.6893  -14.7362 H         1 <1>         0.0347 
     29 H7         23.1942   15.2744  -13.3391 H         1 <1>         0.0347 
     30 H8         22.8854   13.6450  -14.0122 H         1 <1>         0.0347 
     31 H9         21.8609    8.6377   -6.6221 H         1 <1>         0.2126 
     32 H10        20.2342    6.5556   -6.6470 H         1 <1>         0.0475 
     33 H11        21.2685    6.5208   -5.1807 H         1 <1>         0.0475 
     34 H12        21.1649    5.0845   -6.2397 H         1 <1>         0.0475 
@<TRIPOS>BOND
     1    2    1 ar   
     2    2    3 ar   
     3    3    4 ar   
     4    4    5 ar   
     5    6    5 ar   
     6    1    6 ar   
     7    6    7 1    
     8    7    8 am   
     9    9    8 am   
    10    5    9 1    
    11    7   10 2    
    12    9   11 2    
    13    8   12 1    
    14   12   13 1    
    15   13   14 1    
    16   15   14 1    
    17   16   15 2    
    18   12   16 1    
    19   15   17 1    
    20   14   18 2    
    21    2   19 1    
    22   19   20 1    
    23   20   21 2    
    24   20   22 1    
    25    1   23 1    
    26    3   24 1    
    27    4   25 1    
    28   12   26 1    
    29   16   27 1    
    30   17   28 1    
    31   17   29 1    
    32   17   30 1    
    33   19   31 1    
    34   22   32 1    
    35   22   33 1    
    36   22   34 1    
@<TRIPOS>SUBSTRUCTURE
     1 ****        2 TEMP              0 ****  ****    0 ROOT 
@<TRIPOS>NORMAL
@<TRIPOS>FF_PBC
FORCE_FIELD_SETUP_FEATURE Force Field Setup information
v1.0  0 0.000000 0.000000 0.000000 0.000000 0.000000 0.000000 NONE 0 0 0 0 1 0 0 0 0 0 0 0 0
