#	Name:			PISM00604
#	Creating user name:	baoopengkun
#	Creation time:		Mon Dec 10 09:48:48 2018

#	Modifying user name:	baoopengkun
#	Modification time:	Mon Dec 10 09:49:08 2018

@<TRIPOS>MOLECULE
PISM00604
   44    47     1     2     0
SMALL
GAST_HUCK


@<TRIPOS>ATOM
      1 C1          3.5250    9.5023   -6.6482 C.ar      1 <1>        -0.0348 
      2 C2          2.6058    9.9002   -5.6729 C.ar      1 <1>        -0.0180 
      3 C3          2.1944    8.9970   -4.6889 C.ar      1 <1>         0.0714 
      4 C4          2.7083    7.6975   -4.6761 C.ar      1 <1>        -0.0180 
      5 C5          3.6234    7.2990   -5.6546 C.ar      1 <1>        -0.0348 
      6 C6          4.0222    8.1949   -6.6525 C.ar      1 <1>         0.0068 
      7 C7          5.0026    7.7347   -7.7406 C.3       1 <1>         0.1921 
      8 C8          6.4529    7.8970   -7.2213 C.3       1 <1>         0.1073 
      9 N9          7.5062    7.4258   -8.1111 N.pl3     1 <1>        -0.1814 
     10 N10         8.8338    7.3616   -7.8093 N.2       1 <1>        -0.1908 
     11 C11         9.5486    6.8966   -8.7651 C.2       1 <1>         0.0618 
     12 N12         8.5399    6.6491   -9.7575 N.2       1 <1>        -0.2870 
     13 C13         7.4063    6.9683   -9.3227 C.2       1 <1>         0.1270 
     14 O14         4.7995    8.4161   -8.9851 O.3       1 <1>        -0.3814 
     15 C15         3.6017    7.8807   -9.5563 C.3       1 <1>         0.0672 
     16 C16         3.6437    6.4056   -9.0809 C.3       1 <1>         0.1004 
     17 O17         4.7202    6.3845   -8.1278 O.3       1 <1>        -0.3757 
     18 C18         2.2965    5.9248   -8.4824 C.3       1 <1>         0.0979 
     19 O19         2.4336    4.5716   -8.0160 O.3       1 <1>        -0.3145 
     20 C20         1.2731    4.0532   -7.4421 C.ar      1 <1>         0.1056 
     21 C21         1.0582    4.1884   -6.0680 C.ar      1 <1>        -0.0324 
     22 C22        -0.1097    3.6843   -5.4882 C.ar      1 <1>        -0.0704 
     23 C23        -1.0604    3.0383   -6.2841 C.ar      1 <1>        -0.0723 
     24 C24        -0.8414    2.8952   -7.6575 C.ar      1 <1>        -0.0566 
     25 C25         0.3261    3.4003   -8.2370 C.ar      1 <1>         0.0678 
     26 Cl26        1.0362    9.4934   -3.4722 Cl        1 <1>        -0.0420 
     27 H1          3.8526   10.2112   -7.4026 H         1 <1>         0.0849 
     28 H2          2.2102   10.9109   -5.6776 H         1 <1>         0.0703 
     29 H3          2.3952    6.9998   -3.9059 H         1 <1>         0.0703 
     30 H4          4.0233    6.2892   -5.6413 H         1 <1>         0.0849 
     31 H5          6.5561    7.3379   -6.2795 H         1 <1>         0.0595 
     32 H6          6.6368    8.9631   -7.0227 H         1 <1>         0.0595 
     33 H7         10.6243    6.7337   -8.8109 H         1 <1>         0.0863 
     34 H8          6.4988    6.8584   -9.9128 H         1 <1>         0.1361 
     35 H9          3.6038    7.9921  -10.6516 H         1 <1>         0.0576 
     36 H10         2.7345    8.4204   -9.1449 H         1 <1>         0.0576 
     37 H11         3.9333    5.7271   -9.8999 H         1 <1>         0.0635 
     38 H12         1.5209    5.9776   -9.2637 H         1 <1>         0.0641 
     39 H13         1.9973    6.5763   -7.6481 H         1 <1>         0.0641 
     40 H14         1.8019    4.6858   -5.4552 H         1 <1>         0.0542 
     41 H15        -0.2777    3.7937   -4.4210 H         1 <1>         0.0591 
     42 H16        -1.9687    2.6470   -5.8355 H         1 <1>         0.0523 
     43 H17        -1.5771    2.3916   -8.2763 H         1 <1>         0.0595 
     44 Cl44        0.5992    3.2148   -9.9579 Cl        1 <1>        -0.0788 
@<TRIPOS>BOND
     1    2    1 ar   
     2    2    3 ar   
     3    3    4 ar   
     4    4    5 ar   
     5    5    6 ar   
     6    1    6 ar   
     7    6    7 1    
     8    7    8 1    
     9    8    9 1    
    10    9   10 1    
    11   10   11 2    
    12   11   12 1    
    13   12   13 2    
    14    9   13 1    
    15    7   14 1    
    16   14   15 1    
    17   15   16 1    
    18   16   17 1    
    19    7   17 1    
    20   16   18 1    
    21   18   19 1    
    22   19   20 1    
    23   20   21 ar   
    24   21   22 ar   
    25   22   23 ar   
    26   23   24 ar   
    27   24   25 ar   
    28   20   25 ar   
    29    3   26 1    
    30    1   27 1    
    31    2   28 1    
    32    4   29 1    
    33    5   30 1    
    34    8   31 1    
    35    8   32 1    
    36   11   33 1    
    37   13   34 1    
    38   15   35 1    
    39   15   36 1    
    40   16   37 1    
    41   18   38 1    
    42   18   39 1    
    43   21   40 1    
    44   22   41 1    
    45   23   42 1    
    46   24   43 1    
    47   25   44 1    
@<TRIPOS>SUBSTRUCTURE
     1 ****        2 TEMP              0 ****  ****    0 ROOT 
@<TRIPOS>NORMAL
@<TRIPOS>FF_PBC
FORCE_FIELD_SETUP_FEATURE Force Field Setup information
v1.0  0 0.000000 0.000000 0.000000 0.000000 0.000000 0.000000 NONE 0 0 0 0 1 0 0 0 0 0 0 0 0
@<TRIPOS>RENDERING_ATTRS
ANTIALIASED_LINES 
*
