#	Name:			PISM00397
#	Creating user name:	malab
#	Creation time:		Tue Apr 02 19:22:01 2019

#	Modifying user name:	malab
#	Modification time:	Tue Apr 02 20:29:49 2019

@<TRIPOS>MOLECULE
PISM00397
   37    38     1     1     0
SMALL
GAST_HUCK


@<TRIPOS>ATOM
      1 N1          9.1829    1.3546   -0.0265 N.2       1 <1>        -0.1722 
      2 C2         10.3705    0.8821    0.0313 C.2       1 <1>         0.0658 
      3 N3         10.6065    0.6427   -1.3614 N.2       1 <1>        -0.2821 
      4 C4          9.6067    0.9730   -2.0430 C.2       1 <1>         0.1497 
      5 N5          8.6505    1.4333   -1.2825 N.pl3     1 <1>        -0.1242 
      6 C6          7.4632    1.8751   -1.6288 C.2       1 <1>         0.1091 
      7 C7          6.5945    2.3194   -0.4608 C.3       1 <1>         0.0266 
      8 H8          7.2316    2.7958    0.3003 H         1 <1>         0.0519 
      9 H1         11.0154    0.7126    0.8919 H         1 <1>         0.0882 
     10 H2          9.6498    0.8447   -3.1223 H         1 <1>         0.1391 
     11 C11         7.0413    1.9303   -2.9060 C.2       1 <1>        -0.0358 
     12 C12         5.3291    3.7927   -3.1501 C.ar      1 <1>        -0.0674 
     13 C13         4.0447    4.2277   -3.4893 C.ar      1 <1>        -0.0570 
     14 C14         3.1434    3.3454   -4.0904 C.ar      1 <1>         0.0313 
     15 C15         3.5336    2.0322   -4.3654 C.ar      1 <1>        -0.0570 
     16 C16         4.8105    1.5931   -4.0054 C.ar      1 <1>        -0.0674 
     17 Cl17        1.5279    3.8845   -4.5008 Cl        1 <1>        -0.0782 
     18 C18         5.6957    2.4581   -3.3543 C.ar      1 <1>        -0.0507 
     19 C19         5.7531    1.1800    0.2020 C.3       1 <1>        -0.0216 
     20 C20         6.6682    0.0651    0.7862 C.3       1 <1>        -0.0575 
     21 C21         4.9053    1.7867    1.3616 C.3       1 <1>        -0.0575 
     22 C22         4.7866    0.5430   -0.8380 C.3       1 <1>        -0.0575 
     23 H3          5.8883    3.0969   -0.7732 H         1 <1>         0.0519 
     24 H4          7.6347    1.5888   -3.7487 H         1 <1>         0.0311 
     25 H5          6.0434    4.4964   -2.7334 H         1 <1>         0.0542 
     26 H6          3.7461    5.2514   -3.2889 H         1 <1>         0.0600 
     27 H7          2.8432    1.3552   -4.8578 H         1 <1>         0.0600 
     28 H8          5.1129    0.5752   -4.2307 H         1 <1>         0.0542 
     29 H9          6.0636   -0.7140    1.2748 H         1 <1>         0.0237 
     30 H10         7.3549    0.4824    1.5377 H         1 <1>         0.0237 
     31 H11         7.2587   -0.4167   -0.0068 H         1 <1>         0.0237 
     32 H12         4.2248    2.5648    0.9830 H         1 <1>         0.0237 
     33 H13         5.5581    2.2398    2.1235 H         1 <1>         0.0237 
     34 H14         4.2965    1.0104    1.8501 H         1 <1>         0.0237 
     35 H15         5.3516    0.0590   -1.6474 H         1 <1>         0.0237 
     36 H16         4.1249    1.3069   -1.2732 H         1 <1>         0.0237 
     37 H17         4.1557   -0.2235   -0.3628 H         1 <1>         0.0237 
@<TRIPOS>BOND
     1    2    1 2    
     2    2    3 1    
     3    3    4 2    
     4    4    5 1    
     5    1    5 1    
     6    5    6 1    
     7    6    7 1    
     8    7    8 1    
     9    2    9 1    
    10    4   10 1    
    11    7   23 1    
    12    6   11 2    
    13   18   12 ar   
    14   12   13 ar   
    15   13   14 ar   
    16   14   15 ar   
    17   15   16 ar   
    18   18   16 ar   
    19   11   18 1    
    20   14   17 1    
    21    7   19 1    
    22   19   20 1    
    23   19   21 1    
    24   19   22 1    
    25   11   24 1    
    26   12   25 1    
    27   13   26 1    
    28   15   27 1    
    29   16   28 1    
    30   20   29 1    
    31   20   30 1    
    32   20   31 1    
    33   21   32 1    
    34   21   33 1    
    35   21   34 1    
    36   22   35 1    
    37   22   36 1    
    38   22   37 1    
@<TRIPOS>SUBSTRUCTURE
     1 ****        2 TEMP              0 ****  ****    0 ROOT 
@<TRIPOS>NORMAL
@<TRIPOS>FF_PBC
FORCE_FIELD_SETUP_FEATURE Force Field Setup information
v1.0  0 0.000000 0.000000 0.000000 0.000000 0.000000 0.000000 NONE 0 0 0 0 1 0 0 0 0 0 0 0 0
