#	Name:			PISM00301
#	Creating user name:	malab
#	Creation time:		Fri Apr 05 17:01:35 2019

#	Modifying user name:	malab
#	Modification time:	Fri Apr 05 17:04:04 2019

@<TRIPOS>MOLECULE
PISM00301
   70    71     1     1     0
SMALL
GAST_HUCK


@<TRIPOS>ATOM
      1 N1        -24.3747   21.6095   53.6182 N.2       1 <1>        -0.1720 
      2 C2        -25.3568   21.0966   54.2583 C.2       1 <1>         0.0659 
      3 N3        -26.2184   20.7639   53.1632 N.2       1 <1>        -0.2820 
      4 C4        -25.6919   21.0913   52.0727 C.2       1 <1>         0.1500 
      5 N5        -24.5219   21.6391   52.2602 N.pl3     1 <1>        -0.1212 
      6 C6        -23.6763   22.1021   51.3688 C.2       1 <1>         0.1382 
      7 C7        -22.4044   22.7048   51.9534 C.3       1 <1>         0.1339 
      8 C8        -22.5429   24.2057   52.3868 C.3       1 <1>         0.0049 
      9 C9        -23.6636   24.4307   53.4458 C.3       1 <1>        -0.0551 
     10 C10       -21.1897   24.6895   52.9895 C.3       1 <1>        -0.0551 
     11 C11       -22.8697   25.0806   51.1398 C.3       1 <1>        -0.0551 
     12 C12       -23.9079   22.0544   50.0435 C.2       1 <1>        -0.0324 
     13 C13       -22.9401   22.5219   48.9781 C.ar      1 <1>        -0.0499 
     14 C14       -21.7178   21.8681   48.7879 C.ar      1 <1>        -0.0662 
     15 C15       -20.8213   22.3219   47.8161 C.ar      1 <1>        -0.0550 
     16 C16       -21.1452   23.4316   47.0299 C.ar      1 <1>         0.0165 
     17 C17       -22.3787   24.0670   47.1965 C.ar      1 <1>        -0.0550 
     18 C18       -23.2800   23.6028   48.1587 C.ar      1 <1>        -0.0662 
     19 C19       -19.5671   21.6414   47.6194 C.1       1 <1>         0.0000 
     20 C20       -18.5226   21.0685   47.4457 C.1       1 <1>        -0.0738 
     21 C21       -17.2641   20.3692   47.2217 C.3       1 <1>         0.1070 
     22 O22       -17.3796   19.6797   45.9639 O.3       1 <1>        -0.3655 
     23 C23       -16.1951   18.9432   45.6039 C.3       1 <1>         0.0722 
     24 C24       -16.4493   18.2504   44.2447 C.3       1 <1>         0.0711 
     25 O25       -15.2718   17.5126   43.8617 O.3       1 <1>        -0.3752 
     26 C26       -15.4158   16.8308   42.5997 C.3       1 <1>         0.0711 
     27 C27       -14.1049   16.0748   42.2813 C.3       1 <1>         0.0710 
     28 O28       -14.2630   15.3978   41.0189 O.3       1 <1>        -0.3775 
     29 C29       -13.0945   14.6558   40.6178 C.3       1 <1>         0.0478 
     30 C30       -13.3887   13.9752   39.2566 C.3       1 <1>        -0.0297 
     31 C31       -12.1712   13.1522   38.7542 C.3       1 <1>        -0.0538 
     32 C32       -12.4742   12.4709   37.3943 C.3       1 <1>        -0.0652 
     33 O33       -21.8601   21.8730   52.9931 O.3       1 <1>        -0.3710 
     34 H1        -25.4966   20.9540   55.3282 H         1 <1>         0.0882 
     35 H2        -26.2368   20.8950   51.1527 H         1 <1>         0.1391 
     36 H3        -21.5969   22.6788   51.2112 H         1 <1>         0.0854 
     37 H4        -23.7308   25.4980   53.7084 H         1 <1>         0.0238 
     38 H5        -23.4584   23.8780   54.3739 H         1 <1>         0.0238 
     39 H6        -24.6452   24.1246   53.0554 H         1 <1>         0.0238 
     40 H7        -20.3728   24.5757   52.2604 H         1 <1>         0.0238 
     41 H8        -20.9329   24.1106   53.8894 H         1 <1>         0.0238 
     42 H9        -21.2452   25.7518   53.2742 H         1 <1>         0.0238 
     43 H10       -22.1004   24.9585   50.3622 H         1 <1>         0.0238 
     44 H11       -22.9117   26.1470   51.4092 H         1 <1>         0.0238 
     45 H12       -23.8466   24.8016   50.7193 H         1 <1>         0.0238 
     46 H13       -24.8239   21.6692   49.6049 H         1 <1>         0.0317 
     47 H14       -21.4676   21.0011   49.3912 H         1 <1>         0.0545 
     48 H15       -20.4426   23.7993   46.2882 H         1 <1>         0.0000 
     49 H16       -22.6375   24.9209   46.5782 H         1 <1>         0.0608 
     50 H17       -24.2454   24.0859   48.2701 H         1 <1>         0.0545 
     51 H18       -17.1017   19.6663   48.0533 H         1 <1>         0.0692 
     52 H19       -16.4531   21.1132   47.2012 H         1 <1>         0.0692 
     53 H20       -15.9666   18.1762   46.3618 H         1 <1>         0.0583 
     54 H21       -15.3307   19.6200   45.5071 H         1 <1>         0.0583 
     55 H22       -16.6857   19.0209   43.4925 H         1 <1>         0.0583 
     56 H23       -17.3141   17.5745   44.3476 H         1 <1>         0.0583 
     57 H24       -15.6156   17.5518   41.7903 H         1 <1>         0.0583 
     58 H25       -16.2436   16.1043   42.6437 H         1 <1>         0.0583 
     59 H26       -13.9035   15.3525   43.0889 H         1 <1>         0.0583 
     60 H27       -13.2764   16.8000   42.2343 H         1 <1>         0.0583 
     61 H28       -12.8552   13.8844   41.3679 H         1 <1>         0.0560 
     62 H29       -12.2306   15.3319   40.5097 H         1 <1>         0.0560 
     63 H30       -13.6412   14.7526   38.5166 H         1 <1>         0.0287 
     64 H31       -14.2620   13.3121   39.3715 H         1 <1>         0.0287 
     65 H32       -11.9182   12.3771   39.4970 H         1 <1>         0.0263 
     66 H33       -11.2994   13.8177   38.6377 H         1 <1>         0.0263 
     67 H34       -13.3299   11.7845   37.4912 H         1 <1>         0.0230 
     68 H35       -11.5985   11.8941   37.0564 H         1 <1>         0.0230 
     69 H36       -12.7117   13.2275   36.6303 H         1 <1>         0.0230 
     70 H37       -22.4312   21.7859   53.7470 H         1 <1>         0.2142 
@<TRIPOS>BOND
     1    1    2 2    
     2    2    3 1    
     3    4    3 2    
     4    5    4 1    
     5    5    1 1    
     6    6    5 1    
     7    6    7 1    
     8    7    8 1    
     9    8    9 1    
    10    8   10 1    
    11    8   11 1    
    12   12    6 2    
    13   13   12 1    
    14   14   13 ar   
    15   15   14 ar   
    16   15   16 ar   
    17   16   17 ar   
    18   17   18 ar   
    19   13   18 ar   
    20   19   20 3    
    21   15   19 1    
    22   20   21 1    
    23   21   22 1    
    24   22   23 1    
    25   23   24 1    
    26   24   25 1    
    27   25   26 1    
    28   26   27 1    
    29   27   28 1    
    30   28   29 1    
    31   29   30 1    
    32   30   31 1    
    33   31   32 1    
    34    7   33 1    
    35    2   34 1    
    36    4   35 1    
    37    7   36 1    
    38    9   37 1    
    39    9   38 1    
    40    9   39 1    
    41   10   40 1    
    42   10   41 1    
    43   10   42 1    
    44   11   43 1    
    45   11   44 1    
    46   11   45 1    
    47   12   46 1    
    48   14   47 1    
    49   16   48 1    
    50   17   49 1    
    51   18   50 1    
    52   21   51 1    
    53   21   52 1    
    54   23   53 1    
    55   23   54 1    
    56   24   55 1    
    57   24   56 1    
    58   26   57 1    
    59   26   58 1    
    60   27   59 1    
    61   27   60 1    
    62   29   61 1    
    63   29   62 1    
    64   30   63 1    
    65   30   64 1    
    66   31   65 1    
    67   31   66 1    
    68   32   67 1    
    69   32   68 1    
    70   32   69 1    
    71   33   70 1    
@<TRIPOS>SUBSTRUCTURE
     1 ****        2 TEMP              0 ****  ****    0 ROOT 
@<TRIPOS>NORMAL
@<TRIPOS>FF_PBC
FORCE_FIELD_SETUP_FEATURE Force Field Setup information
v1.0  0 0.000000 0.000000 0.000000 0.000000 0.000000 0.000000 NONE 0 0 0 0 0 0 0 0 0 0 0 0 0
