#	Name:			PISM00754
#	Creating user name:	baoopengkun
#	Creation time:		Wed Jan 02 12:00:41 2019

#	Modifying user name:	baoopengkun
#	Modification time:	Wed Jan 02 12:09:42 2019

@<TRIPOS>MOLECULE
PISM00754
   41    43     1     1     0
SMALL
GAST_HUCK


@<TRIPOS>ATOM
      1 C1         -7.3257   -3.2661    0.3987 C.ar      1 <1>        -0.0365 
      2 C2         -8.0094   -2.3282   -0.3861 C.ar      1 <1>        -0.0521 
      3 C3         -7.3738   -1.1593   -0.8339 C.ar      1 <1>        -0.0521 
      4 C4         -6.0360   -0.8957   -0.5115 C.ar      1 <1>        -0.0365 
      5 C5         -5.3690   -1.8398    0.2686 C.ar      1 <1>         0.0769 
      6 C6         -5.9959   -2.9863    0.7109 C.ar      1 <1>         0.0769 
      7 C7         -4.9494   -3.7150    1.5118 C.2       1 <1>         0.2524 
      8 O8         -5.2078   -4.7700    2.0648 O.2       1 <1>        -0.3565 
      9 N9         -3.8291   -3.0266    1.5036 N.pl3     1 <1>        -0.1468 
     10 C10        -3.9631   -1.9195    0.8052 C.2       1 <1>         0.2524 
     11 O11        -3.1725   -1.0351    0.5348 O.2       1 <1>        -0.3565 
     12 C12        -2.7414   -3.4396    2.1325 C.2       1 <1>         0.1754 
     13 C13        -2.7138   -4.7941    2.7353 C.2       1 <1>         0.2659 
     14 O14        -2.4849   -4.9000    3.9310 O.2       1 <1>        -0.3725 
     15 O15        -2.8986   -5.8709    1.9556 O.3       1 <1>        -0.2845 
     16 C16        -2.9168   -7.1182    2.6761 C.3       1 <1>         0.0638 
     17 C17        -1.5719   -2.7994    2.3314 C.2       1 <1>         0.0966 
     18 O18        -1.3692   -1.5395    1.9312 O.3       1 <1>        -0.2778 
     19 C19        -0.0283   -1.0382    2.0982 C.3       1 <1>         0.2433 
     20 C20         0.8999   -1.5309    1.0063 C.2       1 <1>         0.0154 
     21 C21         1.3139   -0.5362    0.2233 C.2       1 <1>         0.0196 
     22 C22         0.6621    0.6273    0.8126 C.2       1 <1>         0.2324 
     23 O23        -0.0932    0.3857    1.8781 O.3       1 <1>        -0.2333 
     24 O24         0.8044    1.7531    0.3674 O.2       1 <1>        -0.3822 
     25 C25         2.2251   -0.5852   -0.9734 C.3       1 <1>        -0.0421 
     26 H1         -7.8030   -4.1739    0.7532 H         1 <1>         0.0683 
     27 H2         -9.0470   -2.5096   -0.6510 H         1 <1>         0.0663 
     28 H3         -7.9265   -0.4473   -1.4398 H         1 <1>         0.0663 
     29 H4         -5.5318    0.0033   -0.8509 H         1 <1>         0.0683 
     30 H5         -3.0820   -7.9256    1.9479 H         1 <1>         0.0574 
     31 H6         -3.7391   -7.1382    3.4095 H         1 <1>         0.0574 
     32 H7         -1.9596   -7.3024    3.1897 H         1 <1>         0.0574 
     33 H8         -0.7719   -3.3283    2.8577 H         1 <1>         0.0970 
     34 H9          0.3820   -1.1931    3.1102 H         1 <1>         0.1231 
     35 C35         1.2561   -2.9922    0.8956 C.3       1 <1>        -0.0223 
     36 H11         1.8277   -1.2913   -1.7176 H         1 <1>         0.0303 
     37 H12         3.2298   -0.9091   -0.6640 H         1 <1>         0.0303 
     38 H13         2.3000    0.4106   -1.4354 H         1 <1>         0.0303 
     39 H10         1.6040   -3.3712    1.8680 H         1 <1>         0.0429 
     40 H14         2.0592   -3.1477    0.1604 H         1 <1>         0.0429 
     41 H15         0.3786   -3.5697    0.5695 H         1 <1>         0.0429 
@<TRIPOS>BOND
     1    2    1 ar   
     2    2    3 ar   
     3    3    4 ar   
     4    4    5 ar   
     5    5    6 ar   
     6    1    6 ar   
     7    6    7 1    
     8    7    8 2    
     9    7    9 1    
    10    9   10 1    
    11    5   10 1    
    12   10   11 2    
    13    9   12 1    
    14   12   13 1    
    15   13   14 2    
    16   13   15 1    
    17   15   16 1    
    18   12   17 2    
    19   17   18 1    
    20   18   19 1    
    21   19   20 1    
    22   20   21 2    
    23   21   22 1    
    24   22   23 1    
    25   19   23 1    
    26   22   24 2    
    27   21   25 1    
    28    1   26 1    
    29    2   27 1    
    30    3   28 1    
    31    4   29 1    
    32   16   30 1    
    33   16   31 1    
    34   16   32 1    
    35   17   33 1    
    36   19   34 1    
    37   20   35 1    
    38   25   36 1    
    39   25   37 1    
    40   25   38 1    
    41   35   39 1    
    42   35   40 1    
    43   35   41 1    
@<TRIPOS>SUBSTRUCTURE
     1 ****        2 TEMP              0 ****  ****    0 ROOT 
@<TRIPOS>NORMAL
@<TRIPOS>FF_PBC
FORCE_FIELD_SETUP_FEATURE Force Field Setup information
v1.0  0 0.000000 0.000000 0.000000 0.000000 0.000000 0.000000 NONE 0 0 0 0 1 0 0 0 0 0 0 0 0
