#	Name:			PISM00008
#	Creating user name:	baoopengkun
#	Creation time:		Tue Dec 11 21:33:33 2018

#	Modifying user name:	baoopengkun
#	Modification time:	Tue Dec 11 21:37:02 2018

@<TRIPOS>MOLECULE
PISM00008
   45    47     1     1     0
SMALL
GAST_HUCK


@<TRIPOS>ATOM
      1 C1         14.1244   -8.0848   -0.5898 C.2       1 <1>         0.1784 
      2 N2         13.7782   -8.8131    0.5965 N.2       1 <1>        -0.2650 
      3 C3         14.8137   -9.0674    1.2583 C.2       1 <1>         0.1861 
      4 N4         15.8703   -8.5732    0.6756 N.pl3     1 <1>        -0.1237 
      5 N5         15.3955   -7.9948   -0.4661 N.2       1 <1>        -0.1483 
      6 C6         13.2358   -7.5839   -1.6582 C.2       1 <1>         0.2252 
      7 O7         13.7136   -6.9676   -2.5965 O.2       1 <1>        -0.3816 
      8 N8         11.9098   -7.8101   -1.5884 N.am      1 <1>        -0.2982 
      9 C9         14.7479   -9.8584    2.5474 C.ar      1 <1>         0.0398 
     10 C10        15.7549  -10.7646    2.8995 C.ar      1 <1>        -0.0446 
     11 C11        15.7092  -11.4241    4.1312 C.ar      1 <1>        -0.0574 
     12 C12        14.6290  -11.2198    4.9943 C.ar      1 <1>        -0.0585 
     13 C13        13.5923  -10.3602    4.6209 C.ar      1 <1>        -0.0574 
     14 C14        13.6516   -9.6842    3.3987 C.ar      1 <1>        -0.0446 
     15 C15        17.1485   -8.6119    1.1183 C.ar      1 <1>         0.1127 
     16 C16        18.1776   -8.8878    0.2134 C.ar      1 <1>        -0.0206 
     17 C17        19.5066   -8.9796    0.6459 C.ar      1 <1>        -0.0071 
     18 C18        19.7951   -8.7956    2.0038 C.ar      1 <1>         0.0365 
     19 C19        18.7745   -8.4840    2.9059 C.ar      1 <1>        -0.0579 
     20 C20        17.4555   -8.3672    2.4608 C.ar      1 <1>        -0.0307 
     21 C21        20.6468   -9.2787   -0.3377 C.3       1 <1>         0.0811 
     22 O22        20.1631   -9.3371   -1.6948 O.3       1 <1>        -0.3611 
     23 C23        21.1866   -9.6250   -2.6698 C.3       1 <1>         0.1225 
     24 C24        20.5710   -9.6534   -4.0895 C.3       1 <1>         0.3643 
     25 F25        20.1433   -8.4021   -4.4241 F         1 <1>        -0.1933 
     26 F26        21.5467  -10.0251   -4.9680 F         1 <1>        -0.1933 
     27 C27        19.3892  -10.6558   -4.1549 C.3       1 <1>         0.4562 
     28 F28        18.3479  -10.2473   -3.3785 F         1 <1>        -0.1649 
     29 F29        18.9528  -10.7636   -5.4404 F         1 <1>        -0.1649 
     30 F30        19.7981  -11.8843   -3.7310 F         1 <1>        -0.1649 
     31 Cl31       21.4387   -8.9520    2.5933 Cl        1 <1>        -0.0829 
     32 H1         11.5212   -8.3163   -0.8186 H         1 <1>         0.1810 
     33 H2         11.3179   -7.4661   -2.3168 H         1 <1>         0.1810 
     34 H3         16.5733  -10.9693    2.2173 H         1 <1>         0.0657 
     35 H4         16.5115  -12.0979    4.4166 H         1 <1>         0.0626 
     36 H5         14.5943  -11.7295    5.9526 H         1 <1>         0.0644 
     37 H6         12.7417  -10.2165    5.2806 H         1 <1>         0.0626 
     38 H7         12.8439   -9.0175    3.1127 H         1 <1>         0.0657 
     39 H8         17.9243   -9.0337   -0.8309 H         1 <1>         0.0527 
     40 H9         19.0090   -8.3305    3.9545 H         1 <1>         0.0590 
     41 H10        16.6767   -8.0806    3.1598 H         1 <1>         0.0534 
     42 H11        21.0957  -10.2420   -0.0472 H         1 <1>         0.0725 
     43 H12        21.4002   -8.4803   -0.2417 H         1 <1>         0.0725 
     44 H13        21.6524  -10.6025   -2.4654 H         1 <1>         0.0625 
     45 H14        21.9694   -8.8499   -2.6587 H         1 <1>         0.0625 
@<TRIPOS>BOND
     1    2    1 1    
     2    2    3 2    
     3    3    4 1    
     4    4    5 1    
     5    1    5 2    
     6    1    6 1    
     7    6    7 2    
     8    6    8 am   
     9    3    9 1    
    10    9   10 ar   
    11   10   11 ar   
    12   11   12 ar   
    13   12   13 ar   
    14   13   14 ar   
    15    9   14 ar   
    16    4   15 1    
    17   15   16 ar   
    18   16   17 ar   
    19   17   18 ar   
    20   18   19 ar   
    21   19   20 ar   
    22   15   20 ar   
    23   17   21 1    
    24   21   22 1    
    25   22   23 1    
    26   23   24 1    
    27   24   25 1    
    28   24   26 1    
    29   24   27 1    
    30   27   28 1    
    31   27   29 1    
    32   27   30 1    
    33   18   31 1    
    34    8   32 1    
    35    8   33 1    
    36   10   34 1    
    37   11   35 1    
    38   12   36 1    
    39   13   37 1    
    40   14   38 1    
    41   16   39 1    
    42   19   40 1    
    43   20   41 1    
    44   21   42 1    
    45   21   43 1    
    46   23   44 1    
    47   23   45 1    
@<TRIPOS>SUBSTRUCTURE
     1 ****        2 TEMP              0 ****  ****    0 ROOT 
@<TRIPOS>NORMAL
@<TRIPOS>FF_PBC
FORCE_FIELD_SETUP_FEATURE Force Field Setup information
v1.0  0 0.000000 0.000000 0.000000 0.000000 0.000000 0.000000 NONE 0 0 0 0 1 0 0 0 0 0 0 0 0
