#	Name:			PISM01072
#	Creating user name:	14062
#	Creation time:		Sat Apr 06 20:37:53 2019

#	Modifying user name:	14062
#	Modification time:	Sat Apr 06 20:39:21 2019

@<TRIPOS>MOLECULE
PISM01072
  180   185     1     1     0
SMALL
GAST_HUCK


@<TRIPOS>ATOM
      1 S          -7.7579    1.1305   -3.8274 S.3       1 <1>         0.0194 
      2 C          -6.3663    0.5926   -2.9250 C.ar      1 <1>         0.0973 
      3 N          -5.3267    0.3110   -3.7363 N.ar      1 <1>        -0.3193 
      4 C          -5.5553    0.6163   -5.0306 C.ar      1 <1>         0.0478 
      5 C          -6.8628    1.0610   -5.2205 C.ar      1 <1>         0.0328 
      6 H          -7.2585    1.3374   -6.1912 H         1 <1>         0.0843 
      7 C          -4.5462    0.5099   -6.1076 C.ar      1 <1>         0.1084 
      8 S          -3.5933   -0.9256   -6.3643 S.3       1 <1>         0.0169 
      9 C          -2.8057   -0.1563   -7.6165 C.ar      1 <1>         0.0441 
     10 H          -2.0303   -0.6287   -8.2092 H         1 <1>         0.0932 
     11 C          -3.2352    1.1538   -7.8255 C.ar      1 <1>         0.0904 
     12 N          -4.2459    1.4821   -6.9928 N.ar      1 <1>        -0.3101 
     13 C          -2.6598    2.1233   -8.8322 C.2       1 <1>         0.1968 
     14 O          -1.8010    1.7250   -9.6016 O.2       1 <1>        -0.3938 
     15 N          -3.1036    3.3981   -8.8426 N.am      1 <1>        -0.2888 
     16 H          -3.8337    3.6609   -8.2084 H         1 <1>         0.1839 
     17 C          -2.5483    4.3674   -9.7833 C.3       1 <1>         0.0343 
     18 H          -1.4660    4.1931   -9.9103 H         1 <1>         0.0520 
     19 H          -3.0370    4.2365  -10.7626 H         1 <1>         0.0520 
     20 C          -2.7588    5.8158   -9.2653 C.3       1 <1>         0.0123 
     21 H          -3.8399    6.0063   -9.1755 H         1 <1>         0.0330 
     22 H          -2.3079    5.8972   -8.2623 H         1 <1>         0.0330 
     23 C          -2.1148    6.8698  -10.2047 C.3       1 <1>         0.1111 
     24 H          -1.0390    6.6577  -10.3142 H         1 <1>         0.0840 
     25 H          -2.5835    6.8364  -11.2012 H         1 <1>         0.0840 
     26 S          -2.2762    8.5422   -9.4732 S.3       1 <1>        -0.0162 
     27 C          -1.4811    9.5946  -10.7368 C.3       1 <1>         0.0991 
     28 H          -1.6064   10.6521  -10.4599 H         1 <1>         0.0803 
     29 H          -0.4058    9.3646  -10.7795 H         1 <1>         0.0803 
     30 H          -1.9258    9.4263  -11.7291 H         1 <1>         0.0803 
     31 C          -4.0434    8.9562   -9.6886 C.3       1 <1>         0.0991 
     32 H          -4.1946   10.0206   -9.4537 H         1 <1>         0.0803 
     33 H          -4.6544    8.3568   -8.9979 H         1 <1>         0.0803 
     34 H          -4.3714    8.7657  -10.7216 H         1 <1>         0.0803 
     35 C          -6.2927    0.4661   -1.4067 C.3       1 <1>         0.0344 
     36 H          -5.4693   -0.2170   -1.1468 H         1 <1>         0.0522 
     37 H          -7.2365    0.0456   -1.0281 H         1 <1>         0.0522 
     38 C          -6.0424    1.8733   -0.8075 C.3       1 <1>         0.0459 
     39 H          -6.8825    2.5309   -1.0897 H         1 <1>         0.0550 
     40 H          -5.1200    2.2886   -1.2487 H         1 <1>         0.0550 
     41 N          -5.9074    1.8586    0.6472 N.am      1 <1>        -0.2823 
     42 H          -5.9091    0.9819    1.1306 H         1 <1>         0.1854 
     43 C          -5.7678    3.0330    1.3050 C.2       1 <1>         0.2044 
     44 O          -5.7741    4.0957    0.7042 O.2       1 <1>        -0.3944 
     45 C          -5.6032    3.0334    2.8094 C.3       1 <1>         0.1563 
     46 H          -6.3344    2.3221    3.2254 H         1 <1>         0.0826 
     47 N          -5.7853    4.3910    3.3249 N.am      1 <1>        -0.2630 
     48 H          -5.0675    5.0509    3.0937 H         1 <1>         0.1884 
     49 C          -6.8944    4.7308    4.0198 C.2       1 <1>         0.1837 
     50 O          -7.7831    3.9217    4.2273 O.2       1 <1>        -0.3965 
     51 C          -7.0266    6.1520    4.5331 C.3       1 <1>         0.0740 
     52 H          -6.8033    6.8099    3.6763 H         1 <1>         0.0562 
     53 C          -8.4835    6.4416    5.0131 C.3       1 <1>         0.0969 
     54 H          -9.1265    6.1601    4.1580 H         1 <1>         0.0644 
     55 O          -8.7932    5.5931    6.1361 O.3       1 <1>        -0.3869 
     56 H          -9.7165    5.5948    6.3659 H         1 <1>         0.2101 
     57 C          -8.7620    7.9455    5.3427 C.3       1 <1>         0.0675 
     58 H          -7.9836    8.5761    4.8796 H         1 <1>         0.0580 
     59 N         -10.0800    8.2929    4.8079 N.am      1 <1>        -0.2794 
     60 H         -10.8983    8.0079    5.3186 H         1 <1>         0.1855 
     61 C         -10.1998    8.8748    3.5920 C.2       1 <1>         0.2069 
     62 O          -9.2313    9.1882    2.9207 O.2       1 <1>        -0.3942 
     63 C         -11.5924    9.1189    3.0571 C.3       1 <1>         0.1694 
     64 H         -12.2126    9.5051    3.8769 H         1 <1>         0.0853 
     65 N         -12.0789    7.8178    2.6019 N.am      1 <1>        -0.2590 
     66 H         -12.0355    7.5710    1.6310 H         1 <1>         0.1882 
     67 C         -12.5244    6.9166    3.5002 C.2       1 <1>         0.2230 
     68 O         -12.5323    7.1858    4.6914 O.2       1 <1>        -0.3790 
     69 C         -13.0130    5.5784    2.9887 C.ar      1 <1>         0.1170 
     70 N         -13.0241    5.4100    1.6506 N.ar      1 <1>        -0.2730 
     71 C         -13.4938    4.2808    1.0893 C.ar      1 <1>         0.1023 
     72 N         -14.0564    3.3322    1.8613 N.ar      1 <1>        -0.2547 
     73 C         -14.1322    3.4837    3.1973 C.ar      1 <1>         0.1275 
     74 N         -14.8910    2.5906    3.8736 N.pl3     1 <1>        -0.3176 
     75 H         -15.2370    1.7512    3.3861 H         1 <1>         0.1792 
     76 H         -15.2007    2.7720    4.8378 H         1 <1>         0.1792 
     77 C         -13.4484    4.5378    3.8196 C.ar      1 <1>         0.0372 
     78 C         -13.1704    4.5460    5.3300 C.3       1 <1>        -0.0229 
     79 H         -13.9158    5.1753    5.8388 H         1 <1>         0.0392 
     80 H         -12.1623    4.9388    5.5256 H         1 <1>         0.0392 
     81 H         -13.1970    3.5327    5.7551 H         1 <1>         0.0392 
     82 C         -13.3840    4.0846   -0.4228 C.3       1 <1>         0.0874 
     83 H         -13.2706    5.0793   -0.8874 H         1 <1>         0.0708 
     84 N         -14.5850    3.4057   -0.9656 N.3       1 <1>        -0.2928 
     85 H         -14.4424    3.1957   -2.0220 H         1 <1>         0.1256 
     86 C         -15.8648    4.1238   -0.7577 C.3       1 <1>         0.0312 
     87 H         -16.0014    4.3751    0.3060 H         1 <1>         0.0467 
     88 H         -15.8693    5.0617   -1.3372 H         1 <1>         0.0467 
     89 C         -17.0491    3.2104   -1.1670 C.3       1 <1>         0.1082 
     90 H         -16.9484    2.9356   -2.2307 H         1 <1>         0.0714 
     91 N         -17.0099    1.9865   -0.3335 N.3       1 <1>        -0.3097 
     92 H         -16.0826    1.4494   -0.4842 H         1 <1>         0.1211 
     93 H         -17.8500    1.3435   -0.5603 H         1 <1>         0.1211 
     94 C         -18.3605    3.9520   -1.0080 C.2       1 <1>         0.1918 
     95 O         -19.1353    3.6292   -0.1234 O.2       1 <1>        -0.3955 
     96 N         -18.6637    4.9603   -1.8502 N.am      1 <1>        -0.2996 
     97 H         -19.5344    5.4364   -1.7251 H         1 <1>         0.1815 
     98 H         -18.0531    5.2375   -2.5906 H         1 <1>         0.1815 
     99 C         -12.1072    3.2479   -0.6922 C.3       1 <1>         0.0667 
    100 H         -11.2354    3.7473   -0.2409 H         1 <1>         0.0546 
    101 H         -12.2280    2.2560   -0.2310 H         1 <1>         0.0546 
    102 C         -11.8528    3.0623   -2.1668 C.2       1 <1>         0.1775 
    103 O         -12.6915    3.4350   -2.9698 O.2       1 <1>        -0.3970 
    104 N         -10.7081    2.4818   -2.5737 N.am      1 <1>        -0.3007 
    105 H         -10.5600    2.3640   -3.5557 H         1 <1>         0.1814 
    106 H         -10.0170    2.1701   -1.9228 H         1 <1>         0.1814 
    107 C         -11.6848   10.2112    1.9567 C.3       1 <1>         0.1599 
    108 H         -10.8683   10.0833    1.2281 H         1 <1>         0.0844 
    109 O         -11.7601   11.5529    2.4880 O.3       1 <1>        -0.3247 
    110 C         -10.5936   11.9735    3.2140 C.3       1 <1>         0.1914 
    111 H         -10.4614   11.3906    4.1390 H         1 <1>         0.0940 
    112 O          -9.5061   11.8148    2.2871 O.3       1 <1>        -0.3403 
    113 C          -8.2285   12.1796    2.8353 C.3       1 <1>         0.1130 
    114 H          -7.9938   11.5926    3.7399 H         1 <1>         0.0647 
    115 C          -8.2352   13.6908    3.1792 C.3       1 <1>         0.1119 
    116 H          -8.3975   14.2736    2.2564 H         1 <1>         0.0647 
    117 O          -7.0060   14.0890    3.8164 O.3       1 <1>        -0.3865 
    118 H          -6.2425   13.8786    3.2827 H         1 <1>         0.2100 
    119 C          -9.3971   13.9999    4.1564 C.3       1 <1>         0.1144 
    120 H          -9.1917   13.5038    5.1212 H         1 <1>         0.0648 
    121 O          -9.5029   15.4241    4.3532 O.3       1 <1>        -0.3864 
    122 H          -8.6927   15.7969    4.6893 H         1 <1>         0.2100 
    123 C         -10.7471   13.4597    3.6198 C.3       1 <1>         0.1408 
    124 H         -11.0103   14.0439    2.7236 H         1 <1>         0.0675 
    125 O         -11.7119   13.6862    4.6725 O.3       1 <1>        -0.3377 
    126 C         -13.0638   13.2757    4.3876 C.3       1 <1>         0.1889 
    127 H         -13.3107   13.3137    3.3122 H         1 <1>         0.0938 
    128 O         -13.2754   11.9718    4.9688 O.3       1 <1>        -0.3405 
    129 C         -14.6473   11.5214    4.8791 C.3       1 <1>         0.1133 
    130 H         -14.9310   11.3794    3.8227 H         1 <1>         0.0647 
    131 C         -15.6368   12.5338    5.5257 C.3       1 <1>         0.1164 
    132 H         -15.4562   12.5698    6.6142 H         1 <1>         0.0650 
    133 O         -17.0016   12.1504    5.2647 O.3       1 <1>        -0.3861 
    134 H         -17.1923   11.2652    5.5681 H         1 <1>         0.2100 
    135 C         -15.4356   13.9617    4.9600 C.3       1 <1>         0.1468 
    136 H         -15.7384   13.9347    3.8991 H         1 <1>         0.0702 
    137 O         -16.2702   14.8443    5.7450 O.3       1 <1>        -0.2553 
    138 C         -16.5005   16.0413    5.1894 C.2       1 <1>         0.3173 
    139 O         -16.1693   16.3444    4.0559 O.2       1 <1>        -0.3777 
    140 N         -17.1588   16.8831    6.0039 N.am      1 <1>        -0.2763 
    141 H         -17.3771   17.7987    5.6705 H         1 <1>         0.1831 
    142 H         -17.4274   16.6021    6.9241 H         1 <1>         0.1831 
    143 C         -13.9377   14.3370    5.0993 C.3       1 <1>         0.1387 
    144 H         -13.6833   14.3419    6.1733 H         1 <1>         0.0675 
    145 O         -13.6541   15.6339    4.5397 O.3       1 <1>        -0.3837 
    146 H         -12.7319   15.8649    4.6164 H         1 <1>         0.2101 
    147 C         -14.7708   10.1587    5.6165 C.3       1 <1>         0.0730 
    148 H         -14.3614   10.2701    6.6347 H         1 <1>         0.0584 
    149 H         -14.1880    9.3855    5.0952 H         1 <1>         0.0584 
    150 O         -16.1535    9.7546    5.6832 O.3       1 <1>        -0.3924 
    151 H         -16.2742    8.9155    6.1213 H         1 <1>         0.2095 
    152 C          -7.1581   11.8574    1.7631 C.3       1 <1>         0.0730 
    153 H          -7.4443   12.3455    0.8162 H         1 <1>         0.0584 
    154 H          -7.1411   10.7655    1.6017 H         1 <1>         0.0584 
    155 O          -5.8709   12.3370    2.2012 O.3       1 <1>        -0.3924 
    156 H          -5.1751   12.1425    1.5784 H         1 <1>         0.2095 
    157 C         -12.9921   10.0838    1.1662 C.ar      1 <1>         0.0918 
    158 N         -13.1538   10.5141   -0.0678 N.pl3     1 <1>        -0.2622 
    159 H         -12.4452   11.0212   -0.6169 H         1 <1>         0.2433 
    160 C         -14.4062   10.2372   -0.4954 C.ar      1 <1>         0.0826 
    161 H         -14.8330   10.4620   -1.4673 H         1 <1>         0.1012 
    162 N         -15.0326    9.6225    0.5280 N.ar      1 <1>        -0.3461 
    163 C         -14.1968    9.5159    1.5796 C.ar      1 <1>        -0.0203 
    164 H         -14.4303    9.0771    2.5418 H         1 <1>         0.0315 
    165 C          -8.7433    8.2747    6.8629 C.3       1 <1>        -0.0394 
    166 H          -9.5684    7.7782    7.3944 H         1 <1>         0.0253 
    167 H          -7.7996    7.9645    7.3326 H         1 <1>         0.0253 
    168 H          -8.8616    9.3608    7.0023 H         1 <1>         0.0253 
    169 C          -5.9735    6.3991    5.6477 C.3       1 <1>        -0.0428 
    170 H          -5.9350    7.4624    5.9235 H         1 <1>         0.0257 
    171 H          -4.9662    6.1114    5.3113 H         1 <1>         0.0257 
    172 H          -6.2200    5.8044    6.5404 H         1 <1>         0.0257 
    173 C          -4.1739    2.5558    3.1873 C.3       1 <1>         0.0924 
    174 H          -3.9836    1.5651    2.7364 H         1 <1>         0.0639 
    175 O          -3.2389    3.5208    2.6700 O.3       1 <1>        -0.3874 
    176 H          -2.3297    3.2958    2.8418 H         1 <1>         0.2101 
    177 C          -4.0157    2.4526    4.7279 C.3       1 <1>        -0.0346 
    178 H          -3.0037    2.1016    4.9826 H         1 <1>         0.0257 
    179 H          -4.7455    1.7438    5.1481 H         1 <1>         0.0257 
    180 H          -4.1697    3.4374    5.1940 H         1 <1>         0.0257 
@<TRIPOS>BOND
     1    1    2 ar   
     2    2    3 ar   
     3    3    4 ar   
     4    4    5 ar   
     5    5    6 1    
     6    5    1 ar   
     7    4    7 1    
     8    7    8 ar   
     9    8    9 ar   
    10    9   10 1    
    11    9   11 ar   
    12   11   12 ar   
    13   12    7 ar   
    14   11   13 1    
    15   13   14 2    
    16   13   15 am   
    17   15   16 1    
    18   15   17 1    
    19   17   18 1    
    20   17   19 1    
    21   17   20 1    
    22   20   21 1    
    23   20   22 1    
    24   20   23 1    
    25   23   24 1    
    26   23   25 1    
    27   23   26 1    
    28   26   27 1    
    29   27   28 1    
    30   27   29 1    
    31   27   30 1    
    32   26   31 1    
    33   31   32 1    
    34   31   33 1    
    35   31   34 1    
    36    2   35 1    
    37   35   36 1    
    38   35   37 1    
    39   35   38 1    
    40   38   39 1    
    41   38   40 1    
    42   38   41 1    
    43   41   42 1    
    44   41   43 am   
    45   43   44 2    
    46   43   45 1    
    47   45   46 1    
    48   45   47 1    
    49   47   48 1    
    50   47   49 am   
    51   49   50 2    
    52   49   51 1    
    53   51   52 1    
    54   51   53 1    
    55   53   54 1    
    56   53   55 1    
    57   55   56 1    
    58   53   57 1    
    59   57   58 1    
    60   57   59 1    
    61   59   60 1    
    62   59   61 am   
    63   61   62 2    
    64   61   63 1    
    65   63   64 1    
    66   63   65 1    
    67   65   66 1    
    68   65   67 am   
    69   67   68 2    
    70   67   69 1    
    71   69   70 ar   
    72   70   71 ar   
    73   71   72 ar   
    74   72   73 ar   
    75   73   74 1    
    76   74   75 1    
    77   74   76 1    
    78   73   77 ar   
    79   77   69 ar   
    80   77   78 1    
    81   78   79 1    
    82   78   80 1    
    83   78   81 1    
    84   71   82 1    
    85   82   83 1    
    86   82   84 1    
    87   84   85 1    
    88   84   86 1    
    89   86   87 1    
    90   86   88 1    
    91   86   89 1    
    92   89   90 1    
    93   89   91 1    
    94   91   92 1    
    95   91   93 1    
    96   89   94 1    
    97   94   95 2    
    98   94   96 am   
    99   96   97 1    
   100   96   98 1    
   101   82   99 1    
   102   99  100 1    
   103   99  101 1    
   104   99  102 1    
   105  102  103 2    
   106  102  104 am   
   107  104  105 1    
   108  104  106 1    
   109   63  107 1    
   110  107  108 1    
   111  107  109 1    
   112  109  110 1    
   113  110  111 1    
   114  110  112 1    
   115  112  113 1    
   116  113  114 1    
   117  113  115 1    
   118  115  116 1    
   119  115  117 1    
   120  117  118 1    
   121  115  119 1    
   122  119  120 1    
   123  119  121 1    
   124  121  122 1    
   125  119  123 1    
   126  123  124 1    
   127  123  110 1    
   128  123  125 1    
   129  125  126 1    
   130  126  127 1    
   131  126  128 1    
   132  128  129 1    
   133  129  130 1    
   134  129  131 1    
   135  131  132 1    
   136  131  133 1    
   137  133  134 1    
   138  131  135 1    
   139  135  136 1    
   140  135  137 1    
   141  137  138 1    
   142  138  139 2    
   143  138  140 am   
   144  140  141 1    
   145  140  142 1    
   146  135  143 1    
   147  143  144 1    
   148  143  126 1    
   149  143  145 1    
   150  145  146 1    
   151  129  147 1    
   152  147  148 1    
   153  147  149 1    
   154  147  150 1    
   155  150  151 1    
   156  113  152 1    
   157  152  153 1    
   158  152  154 1    
   159  152  155 1    
   160  155  156 1    
   161  107  157 1    
   162  157  158 ar   
   163  158  159 1    
   164  158  160 ar   
   165  160  161 1    
   166  160  162 ar   
   167  162  163 ar   
   168  163  164 1    
   169  163  157 ar   
   170   57  165 1    
   171  165  166 1    
   172  165  167 1    
   173  165  168 1    
   174   51  169 1    
   175  169  170 1    
   176  169  171 1    
   177  169  172 1    
   178   45  173 1    
   179  173  174 1    
   180  173  175 1    
   181  175  176 1    
   182  173  177 1    
   183  177  178 1    
   184  177  179 1    
   185  177  180 1    
@<TRIPOS>SUBSTRUCTURE
     1 ****        1 TEMP              0 ****  ****    0 ROOT 
@<TRIPOS>NORMAL
@<TRIPOS>FF_PBC
FORCE_FIELD_SETUP_FEATURE Force Field Setup information
v1.0  0 0.000000 0.000000 0.000000 0.000000 0.000000 0.000000 NONE 0 0 0 0 1 0 0 0 0 0 0 0 0
@<TRIPOS>UNITY_ATOM_ATTR
26 1
AtomExpr +1
45 1
AtomExpr s=N
51 1
AtomExpr s=I
53 1
AtomExpr s=I
57 1
AtomExpr s=I
63 1
AtomExpr s=N
82 1
AtomExpr s=N
89 1
AtomExpr s=I
107 1
AtomExpr s=N
173 1
AtomExpr s=I
