#	Name:			PISM01133
#	Creating user name:	14062
#	Creation time:		Sat Apr 06 23:28:59 2019

#	Modifying user name:	14062
#	Modification time:	Sat Apr 06 23:30:04 2019

@<TRIPOS>MOLECULE
PISM01133
   15    15     1     2     0
SMALL
GAST_HUCK


@<TRIPOS>ATOM
      1 C1        -17.6386    9.4275    0.3620 C.2       1 CN          0.0016 
      2 S2        -17.4053   10.0811    2.0015 S.3       1 CN         -0.0269 
      3 C3        -15.6458    9.8915    1.7805 C.2       1 CN          0.0845 
      4 C4        -15.3194    9.3875    0.5869 C.2       1 CN         -0.0557 
      5 C5        -16.4948    9.1134   -0.2509 C.2       1 CN         -0.0656 
      6 C6        -14.6851   10.2663    2.8359 C.2       1 CN          0.1603 
      7 O7        -13.4911   10.1164    2.6337 O.2       1 CN         -0.3838 
      8 C8        -15.1620   10.8273    4.1489 C.3       1 CN          0.1450 
      9 C         -14.0609   11.1325    5.0545 C.1       1 CN          0.1092 
     10 N         -13.1941   11.3785    5.7814 N.1       1 CN         -0.3009 
     11 H1        -18.6235    9.3009   -0.0868 H         1 CN          0.0808 
     12 H2        -14.2964    9.1976    0.2626 H         1 CN          0.0522 
     13 H3        -16.4327    8.7004   -1.2577 H         1 CN          0.0440 
     14 H4        -15.8158   10.0971    4.6465 H         1 CN          0.0777 
     15 H5        -15.7209   11.7570    3.9717 H         1 CN          0.0777 
@<TRIPOS>BOND
     1    2    1 1    
     2    3    2 1    
     3    3    4 2    
     4    4    5 1    
     5    5    1 2    
     6    6    3 1    
     7    6    7 2    
     8    8    6 1    
     9    9   10 3    
    10    9    8 1    
    11    1   11 1    
    12    4   12 1    
    13    5   13 1    
    14    8   14 1    
    15    8   15 1    
@<TRIPOS>SUBSTRUCTURE
     1 CN          9 PERM              0 ****  ****    0 ROOT 
@<TRIPOS>NORMAL
@<TRIPOS>FF_PBC
FORCE_FIELD_SETUP_FEATURE Force Field Setup information
v1.0  0 0.000000 0.000000 0.000000 0.000000 0.000000 0.000000 NONE 0 0 0 0 1 0 0 0 0 0 0 0 0
@<TRIPOS>RENDERING_ATTRS
ANTIALIASED_LINES 
*
