#	Name:			PISM00544
#	Creating user name:	malab
#	Creation time:		Fri Apr 05 22:37:25 2019

#	Modifying user name:	malab
#	Modification time:	Fri Apr 05 22:38:12 2019

@<TRIPOS>MOLECULE
PISM00544
   30    31     1     1     0
SMALL
USER_CHARGES


@<TRIPOS>ATOM
      1 C1         24.3974    6.7647   -5.5126 C.ar      1 <1>         0.0000 
      2 C2         25.6407    7.3998   -5.4663 C.ar      1 <1>         0.0000 
      3 C3         25.7473    8.7489   -5.8136 C.ar      1 <1>         0.0000 
      4 C4         24.6193    9.4691   -6.2254 C.ar      1 <1>         0.0000 
      5 C5         23.3817    8.8175   -6.3008 C.ar      1 <1>         0.0000 
      6 C6         23.2673    7.4765   -5.9240 C.ar      1 <1>         0.0000 
      7 C7         24.7559   10.9566   -6.5905 C.3       1 <1>         0.0000 
      8 C8         23.5193   11.7375   -6.2116 C.2       1 <1>         0.0000 
      9 C9         22.9037   12.6813   -6.9293 C.2       1 <1>         0.0000 
     10 O10        22.9923   11.4538   -5.0139 O.3       1 <1>         0.0000 
     11 C11        21.9553   12.2950   -4.9883 C.2       1 <1>         0.0000 
     12 C12        21.7966   13.0711   -6.0617 C.2       1 <1>         0.0000 
     13 C13        25.2120   11.0881   -8.0710 C.3       1 <1>         0.0000 
     14 C14        24.2473   10.3977   -9.0743 C.3       1 <1>         0.0000 
     15 N15        24.6718   10.6627  -10.4444 N.am      1 <1>         0.0000 
     16 H1         24.3113    5.7209   -5.2278 H         1 <1>         0.0000 
     17 H2         26.5232    6.8460   -5.1591 H         1 <1>         0.0000 
     18 H3         26.7145    9.2373   -5.7610 H         1 <1>         0.0000 
     19 H4         22.5007    9.3441   -6.6544 H         1 <1>         0.0000 
     20 H5         22.2993    6.9857   -5.9510 H         1 <1>         0.0000 
     21 H6         25.5485   11.3902   -5.9592 H         1 <1>         0.0000 
     22 H7         23.1369   13.0893   -7.9117 H         1 <1>         0.0000 
     23 H8         21.2802   12.3415   -4.1336 H         1 <1>         0.0000 
     24 H9         21.0307   13.8214   -6.2524 H         1 <1>         0.0000 
     25 H10        26.2050   10.6196   -8.1736 H         1 <1>         0.0000 
     26 H11        25.3241   12.1524   -8.3322 H         1 <1>         0.0000 
     27 H12        23.2194   10.7636   -8.9213 H         1 <1>         0.0000 
     28 H13        24.2448    9.3075   -8.9155 H         1 <1>         0.0000 
     29 H14        25.6354   10.5422  -10.6936 H         1 <1>         0.0000 
     30 H15        23.9899   10.8952  -11.1419 H         1 <1>         0.0000 
@<TRIPOS>BOND
     1    2    1 ar   
     2    2    3 ar   
     3    3    4 ar   
     4    4    5 ar   
     5    5    6 ar   
     6    1    6 ar   
     7    4    7 1    
     8    7    8 1    
     9    8    9 2    
    10    8   10 1    
    11   10   11 1    
    12   11   12 2    
    13    9   12 1    
    14    7   13 1    
    15   13   14 1    
    16   14   15 1    
    17    1   16 1    
    18    2   17 1    
    19    3   18 1    
    20    5   19 1    
    21    6   20 1    
    22    7   21 1    
    23    9   22 1    
    24   11   23 1    
    25   12   24 1    
    26   13   25 1    
    27   13   26 1    
    28   14   27 1    
    29   14   28 1    
    30   15   29 1    
    31   15   30 1    
@<TRIPOS>SUBSTRUCTURE
     1 ****        2 TEMP              0 ****  ****    0 ROOT 
@<TRIPOS>NORMAL
@<TRIPOS>FF_PBC
FORCE_FIELD_SETUP_FEATURE Force Field Setup information
v1.0  0 0.000000 0.000000 0.000000 0.000000 0.000000 0.000000 NONE 0 0 0 0 0 0 0 0 0 0 0 0 0
