#	Name:			PISM00667
#	Creating user name:	baoopengkun
#	Creation time:		Sun Jan 20 22:59:28 2019

#	Modifying user name:	baoopengkun
#	Modification time:	Sun Jan 20 23:00:29 2019

@<TRIPOS>MOLECULE
PISM00667
   51    54     1     2     0
SMALL
GAST_HUCK


@<TRIPOS>ATOM
      1 C1        -12.4570   21.1668   -3.6635 C.ar      1 <1>        -0.0135 
      2 C2        -12.4925   21.9722   -4.8059 C.ar      1 <1>        -0.0103 
      3 C3        -12.7058   21.4024   -6.0662 C.ar      1 <1>         0.0719 
      4 C4        -12.9838   20.0349   -6.1627 C.ar      1 <1>        -0.0103 
      5 C5        -12.9655   19.2333   -5.0181 C.ar      1 <1>        -0.0135 
      6 C6        -12.6408   19.7852   -3.7747 C.ar      1 <1>         0.0314 
      7 C7        -12.4678   18.8700   -2.5555 C.3       1 <1>         0.2090 
      8 C8        -13.8293   18.6229   -1.8652 C.3       1 <1>         0.1150 
      9 N9        -13.6719   17.8332   -0.6538 N.pl3     1 <1>        -0.1794 
     10 N10       -14.0382   16.5335   -0.4723 N.2       1 <1>        -0.1906 
     11 C11       -13.7959   16.1040    0.7102 C.2       1 <1>         0.0618 
     12 N12       -13.2261   17.2778    1.3128 N.2       1 <1>        -0.2870 
     13 C13       -13.1886   18.2212    0.4863 C.2       1 <1>         0.1272 
     14 O14       -11.4879   19.4081   -1.6445 O.3       1 <1>        -0.3714 
     15 C15       -10.4650   18.4143   -1.4679 C.3       1 <1>         0.0699 
     16 C16       -10.4646   17.7547   -2.8602 C.3       1 <1>         0.1027 
     17 O17       -11.8847   17.6387   -3.0045 O.3       1 <1>        -0.3658 
     18 C18        -9.8002   18.6674   -3.9312 C.3       1 <1>         0.0954 
     19 O19       -10.3293   18.3322   -5.2273 O.3       1 <1>        -0.3192 
     20 C20        -9.8610   18.9773   -6.3789 C.ar      1 <1>         0.1202 
     21 C21        -9.7060   20.3684   -6.4311 C.ar      1 <1>        -0.0415 
     22 C22        -9.2611   20.9832   -7.6050 C.ar      1 <1>        -0.0819 
     23 C23        -8.9557   20.2121   -8.7295 C.ar      1 <1>        -0.0819 
     24 C24        -9.1016   18.8236   -8.6788 C.ar      1 <1>        -0.0411 
     25 C25        -9.5619   18.2110   -7.5103 C.ar      1 <1>         0.1290 
     26 O26        -9.7250   16.8282   -7.4734 O.3       1 <1>        -0.2300 
     27 C27       -11.0336   16.4351   -7.9048 C.3       1 <1>         0.5442 
     28 F28       -11.1330   15.0827   -7.8113 F         1 <1>        -0.1403 
     29 F29       -11.2266   16.8070   -9.1993 F         1 <1>        -0.1403 
     30 F30       -11.9921   17.0082   -7.1275 F         1 <1>        -0.1403 
     31 C31       -12.6276   22.2697   -7.3266 C.3       1 <1>         0.3942 
     32 H32       -12.2798   21.6144   -2.6903 H         1 <1>         0.0896 
     33 H2        -12.3486   23.0444   -4.7115 H         1 <1>         0.0897 
     34 H3        -13.2109   19.5880   -7.1258 H         1 <1>         0.0897 
     35 H4        -13.1941   18.1750   -5.0988 H         1 <1>         0.0896 
     36 H5        -14.4952   18.0869   -2.5576 H         1 <1>         0.0618 
     37 H6        -14.2881   19.5890   -1.6061 H         1 <1>         0.0618 
     38 H7        -13.9748   15.1194    1.1393 H         1 <1>         0.0863 
     39 H8        -12.8023   19.2160    0.7065 H         1 <1>         0.1361 
     40 H9        -10.7790   17.6780   -0.7098 H         1 <1>         0.0578 
     41 H10        -9.4978   18.8506   -1.1759 H         1 <1>         0.0578 
     42 H11       -10.0105   16.7506   -2.8785 H         1 <1>         0.0637 
     43 H12        -8.7093   18.5147   -3.9199 H         1 <1>         0.0635 
     44 H13        -9.9966   19.7184   -3.6828 H         1 <1>         0.0635 
     45 H14        -9.9318   20.9922   -5.5765 H         1 <1>         0.0509 
     46 H15        -9.1537   22.0632   -7.6449 H         1 <1>         0.0495 
     47 H16        -8.6067   20.6905   -9.6396 H         1 <1>         0.0495 
     48 H17        -8.8592   18.2176   -9.5457 H         1 <1>         0.0509 
     49 F49       -11.7057   23.2558   -7.1578 F         1 <1>        -0.2083 
     50 F50       -13.8447   22.8294   -7.5552 F         1 <1>        -0.2083 
     51 F51       -12.2696   21.5189   -8.4031 F         1 <1>        -0.2083 
@<TRIPOS>BOND
     1    2    1 ar   
     2    2    3 ar   
     3    3    4 ar   
     4    4    5 ar   
     5    5    6 ar   
     6    1    6 ar   
     7    6    7 1    
     8    7    8 1    
     9    8    9 1    
    10    9   10 1    
    11   10   11 2    
    12   11   12 1    
    13   12   13 2    
    14    9   13 1    
    15    7   14 1    
    16   14   15 1    
    17   15   16 1    
    18   16   17 1    
    19    7   17 1    
    20   16   18 1    
    21   18   19 1    
    22   19   20 1    
    23   20   21 ar   
    24   21   22 ar   
    25   22   23 ar   
    26   23   24 ar   
    27   24   25 ar   
    28   20   25 ar   
    29   25   26 1    
    30   26   27 1    
    31   27   28 1    
    32   27   29 1    
    33   27   30 1    
    34    3   31 1    
    35    1   32 1    
    36    2   33 1    
    37    4   34 1    
    38    5   35 1    
    39    8   36 1    
    40    8   37 1    
    41   11   38 1    
    42   13   39 1    
    43   15   40 1    
    44   15   41 1    
    45   16   42 1    
    46   18   43 1    
    47   18   44 1    
    48   21   45 1    
    49   22   46 1    
    50   23   47 1    
    51   24   48 1    
    52   31   49 1    
    53   31   50 1    
    54   31   51 1    
@<TRIPOS>SUBSTRUCTURE
     1 ****        2 TEMP              0 ****  ****    0 ROOT 
@<TRIPOS>NORMAL
@<TRIPOS>FF_PBC
FORCE_FIELD_SETUP_FEATURE Force Field Setup information
v1.0  0 0.000000 0.000000 0.000000 0.000000 0.000000 0.000000 NONE 0 0 0 0 1 0 0 0 0 0 0 0 0
@<TRIPOS>RENDERING_ATTRS
ANTIALIASED_LINES 
*
