#	Name:			PISM00264
#	Creating user name:	14062
#	Creation time:		Sat Apr 06 00:44:36 2019

#	Modifying user name:	14062
#	Modification time:	Sat Apr 06 00:47:22 2019

@<TRIPOS>MOLECULE
PISM00264
   40    41     1     1     0
SMALL
GAST_HUCK


@<TRIPOS>ATOM
      1 C1         -0.2878    2.0343   -4.7064 C.ar      1 <1>         0.0330 
      2 C2          0.8604    1.7471   -3.9628 C.ar      1 <1>        -0.0538 
      3 C3          0.7882    0.8716   -2.8753 C.ar      1 <1>        -0.0490 
      4 C4         -0.4336    0.2887   -2.5268 C.ar      1 <1>         0.0183 
      5 C5         -1.5753    0.5536   -3.2885 C.ar      1 <1>        -0.0490 
      6 C6         -1.5054    1.4361   -4.3704 C.ar      1 <1>        -0.0538 
      7 S7         -0.5375   -0.7733   -1.1090 S.3       1 <1>        -0.0766 
      8 C8         -1.0929    0.4318    0.1471 C.3       1 <1>         0.1047 
      9 C9         -2.3860    1.0617   -0.3151 C.2       1 <1>         0.1927 
     10 N10        -3.4627    0.2705   -0.5136 N.am      1 <1>        -0.2764 
     11 C11        -4.7187    0.8680   -0.9577 C.3       1 <1>         0.0628 
     12 C12        -5.7429   -0.2260   -1.2940 C.ar      1 <1>         0.0083 
     13 C13        -6.5728   -0.7410   -0.2916 C.ar      1 <1>         0.0943 
     14 C14        -7.4896   -1.7533   -0.5900 C.ar      1 <1>        -0.0396 
     15 C15        -7.6004   -2.2383   -1.8960 C.ar      1 <1>        -0.0776 
     16 C16        -6.7800   -1.7194   -2.9012 C.ar      1 <1>        -0.0797 
     17 C17        -5.8507   -0.7197   -2.5994 C.ar      1 <1>        -0.0669 
     18 C18         0.0231    1.4749    0.4154 C.3       1 <1>        -0.0339 
     19 Cl19       -0.2000    3.1431   -6.0596 Cl        1 <1>        -0.0771 
     20 O20        -2.4390    2.2658   -0.5023 O.2       1 <1>        -0.3955 
     21 O21        -6.4794   -0.2472    1.0108 O.3       1 <1>        -0.3249 
     22 C22        -7.5730    0.5963    1.4095 C.3       1 <1>         0.0578 
     23 H1          1.8067    2.2055   -4.2308 H         1 <1>         0.0606 
     24 H2          1.6803    0.6455   -2.2998 H         1 <1>         0.0566 
     25 H3         -2.5162    0.0743   -3.0417 H         1 <1>         0.0566 
     26 H4         -2.3953    1.6579   -4.9504 H         1 <1>         0.0606 
     27 H5         -1.2921   -0.1243    1.0765 H         1 <1>         0.0675 
     28 H6         -3.4254   -0.7163   -0.3448 H         1 <1>         0.1875 
     29 H7         -4.5473    1.4953   -1.8477 H         1 <1>         0.0660 
     30 H8         -5.1111    1.5236   -0.1648 H         1 <1>         0.0660 
     31 H9         -8.1143   -2.1650    0.1955 H         1 <1>         0.0521 
     32 H10        -8.3211   -3.0165   -2.1285 H         1 <1>         0.0531 
     33 H11        -6.8644   -2.0941   -3.9170 H         1 <1>         0.0505 
     34 H12        -5.2118   -0.3309   -3.3862 H         1 <1>         0.0526 
     35 H13        -0.2807    2.1439    1.2356 H         1 <1>         0.0266 
     36 H14         0.2132    2.0884   -0.4776 H         1 <1>         0.0266 
     37 H15         0.9571    0.9676    0.7021 H         1 <1>         0.0266 
     38 H16        -7.6516    1.4712    0.7455 H         1 <1>         0.0574 
     39 H17        -7.3789    0.9477    2.4336 H         1 <1>         0.0574 
     40 H18        -8.5279    0.0489    1.4018 H         1 <1>         0.0574 
@<TRIPOS>BOND
     1    2    1 ar   
     2    2    3 ar   
     3    3    4 ar   
     4    4    5 ar   
     5    5    6 ar   
     6    1    6 ar   
     7    4    7 1    
     8    7    8 1    
     9    8    9 1    
    10    9   10 am   
    11   10   11 1    
    12   11   12 1    
    13   12   13 ar   
    14   13   14 ar   
    15   14   15 ar   
    16   15   16 ar   
    17   16   17 ar   
    18   12   17 ar   
    19    8   18 1    
    20    1   19 1    
    21    9   20 2    
    22   13   21 1    
    23   21   22 1    
    24    2   23 1    
    25    3   24 1    
    26    5   25 1    
    27    6   26 1    
    28    8   27 1    
    29   10   28 1    
    30   11   29 1    
    31   11   30 1    
    32   14   31 1    
    33   15   32 1    
    34   16   33 1    
    35   17   34 1    
    36   18   35 1    
    37   18   36 1    
    38   18   37 1    
    39   22   38 1    
    40   22   39 1    
    41   22   40 1    
@<TRIPOS>SUBSTRUCTURE
     1 ****        2 TEMP              0 ****  ****    0 ROOT 
@<TRIPOS>NORMAL
@<TRIPOS>FF_PBC
FORCE_FIELD_SETUP_FEATURE Force Field Setup information
v1.0  0 0.000000 0.000000 0.000000 0.000000 0.000000 0.000000 NONE 0 0 0 0 1 0 0 0 0 0 0 0 0
