#	Name:			PISM00017
#	Creating user name:	baoopengkun
#	Creation time:		Sat Nov 17 16:21:23 2018

#	Modifying user name:	baoopengkun
#	Modification time:	Sat Nov 17 16:25:18 2018

@<TRIPOS>MOLECULE
PISM00017
   27    27     1     2     0
SMALL
GAST_HUCK


@<TRIPOS>ATOM
      1 C1         -9.9741   -1.4844    6.2508 C.3       1 <1>        -0.0280 
      2 C2         -9.2278   -2.7328    6.7923 C.3       1 <1>         0.1077 
      3 N3         -7.9624   -2.3245    7.4086 N.am      1 <1>        -0.2700 
      4 C4         -6.9258   -1.8904    6.6524 C.2       1 <1>         0.2062 
      5 C5         -5.6035   -1.4908    7.2777 C.ar      1 <1>         0.0509 
      6 C6         -5.1473   -2.0506    8.4778 C.ar      1 <1>        -0.0278 
      7 C7         -3.9500   -1.6158    9.0531 C.ar      1 <1>         0.0464 
      8 C8         -3.1740   -0.6487    8.4101 C.ar      1 <1>        -0.0296 
      9 C9         -3.5998   -0.1167    7.1910 C.ar      1 <1>         0.0464 
     10 C10        -4.8087   -0.5373    6.6302 C.ar      1 <1>        -0.0278 
     11 C11       -10.1198   -3.4696    7.8306 C.3       1 <1>        -0.0280 
     12 C12        -8.9734   -3.6710    5.6974 C.1       1 <1>        -0.0750 
     13 C13        -8.7631   -4.4417    4.7970 C.1       1 <1>        -0.1166 
     14 O14        -7.0109   -1.7920    5.4398 O.2       1 <1>        -0.3846 
     15 Cl15       -3.4191   -2.2871   10.5816 Cl        1 <1>        -0.0695 
     16 Cl16       -2.6190    1.0781    6.3671 Cl        1 <1>        -0.0695 
     17 H1        -10.9443   -1.7716    5.8170 H         1 <1>         0.0264 
     18 H2         -9.3859   -0.9778    5.4717 H         1 <1>         0.0264 
     19 H3        -10.1498   -0.7716    7.0705 H         1 <1>         0.0264 
     20 H4         -7.9029   -2.3260    8.4047 H         1 <1>         0.1860 
     21 H5         -5.7053   -2.8357    8.9742 H         1 <1>         0.0677 
     22 H6         -2.2434   -0.3133    8.8549 H         1 <1>         0.0664 
     23 H7         -5.1287   -0.1125    5.6843 H         1 <1>         0.0677 
     24 H8         -9.5856   -4.3459    8.2299 H         1 <1>         0.0264 
     25 H9        -11.0572   -3.8139    7.3665 H         1 <1>         0.0264 
     26 H10       -10.3708   -2.8009    8.6682 H         1 <1>         0.0264 
     27 H11        -8.5765   -5.1162    4.0066 H         1 <1>         0.1229 
@<TRIPOS>BOND
     1    2    1 1    
     2    2    3 1    
     3    3    4 am   
     4    4    5 1    
     5    5    6 ar   
     6    6    7 ar   
     7    7    8 ar   
     8    9    8 ar   
     9   10    9 ar   
    10    5   10 ar   
    11    2   11 1    
    12    2   12 1    
    13   12   13 3    
    14    4   14 2    
    15    7   15 1    
    16    9   16 1    
    17    1   17 1    
    18    1   18 1    
    19    1   19 1    
    20    3   20 1    
    21    6   21 1    
    22    8   22 1    
    23   10   23 1    
    24   11   24 1    
    25   11   25 1    
    26   11   26 1    
    27   13   27 1    
@<TRIPOS>SUBSTRUCTURE
     1 ****        2 TEMP              0 ****  ****    0 ROOT 
@<TRIPOS>NORMAL
@<TRIPOS>FF_PBC
FORCE_FIELD_SETUP_FEATURE Force Field Setup information
v1.0  0 0.000000 0.000000 0.000000 0.000000 0.000000 0.000000 NONE 0 0 0 0 1 0 0 0 0 0 0 0 0
@<TRIPOS>RENDERING_ATTRS
ANTIALIASED_LINES 
*
