#	Name:			PISM00443
#	Creating user name:	baoopengkun
#	Creation time:		Sun Mar 31 16:28:34 2019

#	Modifying user name:	baoopengkun
#	Modification time:	Sun Mar 31 16:32:47 2019

@<TRIPOS>MOLECULE
PISM00443
   43    43     1     1     0
SMALL
GAST_HUCK


@<TRIPOS>ATOM
      1 C1         -2.5948    1.1218   -1.9234 C.3       1 <1>        -0.0168 
      2 C2         -3.0508    2.4548   -2.5845 C.3       1 <1>         0.0207 
      3 C3         -4.5340    2.6391   -2.4358 C.2       1 <1>         0.1467 
      4 C4         -5.2835    1.9148   -1.3984 C.2       1 <1>         0.0132 
      5 C5         -4.6697    1.1587   -0.4777 C.2       1 <1>        -0.0667 
      6 C6         -3.1537    1.0313   -0.4645 C.3       1 <1>         0.0391 
      7 C7         -3.1210   -0.0851   -2.7631 C.3       1 <1>        -0.0688 
      8 C8         -1.0376    1.0711   -1.9246 C.3       1 <1>         0.0416 
      9 O9         -5.1291    3.3966   -3.1850 O.2       1 <1>        -0.3649 
     10 O10        -2.7170   -0.2339    0.0687 O.3       1 <1>        -0.4653 
     11 C11        -2.6328    2.1689    0.3904 C.2       1 <1>        -0.0860 
     12 C12        -1.5577    2.0693    1.1846 C.2       1 <1>        -0.0144 
     13 C13        -1.0349    3.1827    2.0112 C.2       1 <1>         0.0276 
     14 O14        -0.5591    1.1826   -3.2812 O.3       1 <1>        -0.3838 
     15 C15        -0.5100    2.9058    3.2163 C.2       1 <1>         0.0681 
     16 C16         0.0325    3.8908    4.1832 C.2       1 <1>         0.2775 
     17 O17        -0.1915    5.0810    4.0527 O.2       1 <1>        -0.3439 
     18 O18         0.7726    3.5142    5.2311 O.3       1 <1>        -0.2912 
     19 C19        -5.4520    0.4220    0.5868 C.3       1 <1>        -0.0367 
     20 C20         0.8756    1.1218   -3.3919 C.3       1 <1>         0.0364 
     21 H1         -2.7964    2.4486   -3.6558 H         1 <1>         0.0476 
     22 H2         -2.5570    3.3245   -2.1267 H         1 <1>         0.0476 
     23 H3         -6.3668    2.0260   -1.4160 H         1 <1>         0.0970 
     24 H4         -2.7378   -0.0412   -3.7939 H         1 <1>         0.0222 
     25 H5         -4.2189   -0.1025   -2.8161 H         1 <1>         0.0222 
     26 H6         -2.7896   -1.0378   -2.3231 H         1 <1>         0.0222 
     27 H7         -0.7013    0.1241   -1.4729 H         1 <1>         0.0551 
     28 H8         -0.6265    1.9060   -1.3378 H         1 <1>         0.0551 
     29 H9         -2.9650   -0.3905    0.9726 H         1 <1>         0.1803 
     30 H10        -3.1741    3.1143    0.3457 H         1 <1>         0.0537 
     31 C31        -1.0926    4.5961    1.4737 C.3       1 <1>        -0.0121 
     32 H11        -1.0273    1.1176    1.2332 H         1 <1>         0.1123 
     33 H12        -0.4817    1.8626    3.5298 H         1 <1>         0.1013 
     34 H13         0.9387    2.5824    5.2963 H         1 <1>         0.2519 
     35 H14        -6.5275    0.6513    0.5500 H         1 <1>         0.0416 
     36 H15        -5.0822    0.7070    1.5831 H         1 <1>         0.0416 
     37 H16        -5.3354   -0.6633    0.4489 H         1 <1>         0.0416 
     38 H17         1.3556    1.9484   -2.8454 H         1 <1>         0.0523 
     39 H18         1.1337    1.2131   -4.4572 H         1 <1>         0.0523 
     40 H19         1.2650    0.1611   -3.0206 H         1 <1>         0.0523 
     41 H20        -0.1233    5.1005    1.6033 H         1 <1>         0.0431 
     42 H21        -1.8730    5.1648    2.0015 H         1 <1>         0.0431 
     43 H22        -1.3120    4.6127    0.3960 H         1 <1>         0.0431 
@<TRIPOS>BOND
     1    2    1 1    
     2    2    3 1    
     3    3    4 1    
     4    4    5 2    
     5    5    6 1    
     6    1    6 1    
     7    1    7 1    
     8    1    8 1    
     9    3    9 2    
    10    6   10 1    
    11    6   11 1    
    12   11   12 2    
    13   12   13 1    
    14    8   14 1    
    15   13   15 2    
    16   15   16 1    
    17   16   17 2    
    18   16   18 1    
    19    5   19 1    
    20   14   20 1    
    21    2   21 1    
    22    2   22 1    
    23    4   23 1    
    24    7   24 1    
    25    7   25 1    
    26    7   26 1    
    27    8   27 1    
    28    8   28 1    
    29   10   29 1    
    30   11   30 1    
    31   13   31 1    
    32   12   32 1    
    33   15   33 1    
    34   18   34 1    
    35   19   35 1    
    36   19   36 1    
    37   19   37 1    
    38   20   38 1    
    39   20   39 1    
    40   20   40 1    
    41   31   41 1    
    42   31   42 1    
    43   31   43 1    
@<TRIPOS>SUBSTRUCTURE
     1 ****        2 TEMP              0 ****  ****    0 ROOT 
@<TRIPOS>NORMAL
@<TRIPOS>FF_PBC
FORCE_FIELD_SETUP_FEATURE Force Field Setup information
v1.0  0 0.000000 0.000000 0.000000 0.000000 0.000000 0.000000 NONE 0 0 0 0 1 0 0 0 0 0 0 0 0
