#	Name:			PISM00271
#	Creating user name:	14062
#	Creation time:		Sat Apr 06 01:01:52 2019

#	Modifying user name:	14062
#	Modification time:	Sat Apr 06 01:02:56 2019

@<TRIPOS>MOLECULE
PISM00271
   24    25     1     1     0
SMALL
GAST_HUCK


@<TRIPOS>ATOM
      1 C1          2.4672   -7.4743   -2.8952 C.ar      1 <1>        -0.0327 
      2 C2          1.3196   -7.0536   -2.2168 C.ar      1 <1>        -0.0246 
      3 C3          1.0771   -5.6898   -2.0076 C.ar      1 <1>         0.0439 
      4 C4          2.0060   -4.7607   -2.4930 C.ar      1 <1>        -0.0225 
      5 C5          3.1579   -5.1720   -3.1720 C.ar      1 <1>         0.0473 
      6 C6          3.3863   -6.5371   -3.3736 C.ar      1 <1>        -0.0327 
      7 C7         -0.1492   -5.1746   -1.2782 C.2       1 <1>         0.1354 
      8 C8         -1.0971   -5.9472   -0.7376 C.2       1 <1>        -0.0429 
      9 C9         -2.0346   -4.9812   -0.1695 C.2       1 <1>        -0.0389 
     10 C10        -1.4825   -3.8046   -0.4697 C.2       1 <1>         0.1671 
     11 O11        -0.3301   -3.8558   -1.1455 O.3       1 <1>        -0.2442 
     12 C12        -2.0761   -2.5062   -0.0965 C.2       1 <1>         0.1513 
     13 O13        -1.5329   -1.4542   -0.3936 O.2       1 <1>        -0.3681 
     14 C14         4.1415   -4.1103   -3.6781 C.3       1 <1>         0.3767 
     15 F15         3.5154   -3.3299   -4.5986 F         1 <1>        -0.2200 
     16 F16         5.2411   -4.6719   -4.2496 F         1 <1>        -0.2200 
     17 F17         4.5367   -3.3345   -2.6336 F         1 <1>        -0.2200 
     18 H1          2.6465   -8.5343   -3.0521 H         1 <1>         0.0695 
     19 H2          0.6281   -7.8073   -1.8611 H         1 <1>         0.0853 
     20 H3          1.8391   -3.6981   -2.3450 H         1 <1>         0.0846 
     21 H4          4.2726   -6.8777   -3.8999 H         1 <1>         0.0843 
     22 H5         -1.2090   -7.0283   -0.6925 H         1 <1>         0.0412 
     23 H6         -2.9600   -5.1850    0.3684 H         1 <1>         0.0464 
     24 H7         -3.0151   -2.4705    0.4538 H         1 <1>         0.1335 
@<TRIPOS>BOND
     1    2    1 ar   
     2    2    3 ar   
     3    3    4 ar   
     4    4    5 ar   
     5    5    6 ar   
     6    1    6 ar   
     7    3    7 1    
     8    7    8 2    
     9    8    9 1    
    10    9   10 2    
    11   10   11 1    
    12    7   11 1    
    13   10   12 1    
    14   12   13 2    
    15    5   14 1    
    16   14   15 1    
    17   14   16 1    
    18   14   17 1    
    19    1   18 1    
    20    2   19 1    
    21    4   20 1    
    22    6   21 1    
    23    8   22 1    
    24    9   23 1    
    25   12   24 1    
@<TRIPOS>SUBSTRUCTURE
     1 ****        2 TEMP              0 ****  ****    0 ROOT 
@<TRIPOS>NORMAL
@<TRIPOS>FF_PBC
FORCE_FIELD_SETUP_FEATURE Force Field Setup information
v1.0  0 0.000000 0.000000 0.000000 0.000000 0.000000 0.000000 NONE 0 0 0 0 1 0 0 0 0 0 0 0 0
