#	Name:			PISM00881.1
#	Creating user name:	baoopengkun
#	Creation time:		Sat Jan 12 21:44:40 2019

#	Modifying user name:	baoopengkun
#	Modification time:	Sat Jan 12 21:47:47 2019

@<TRIPOS>MOLECULE
PISM00881.1
   27    28     1     1     0
SMALL
GAST_HUCK


@<TRIPOS>ATOM
      1 C1         -5.6057   -6.9405    2.7573 C.ar      1 <1>        -0.0489 
      2 C2         -5.9768   -5.9554    3.6763 C.ar      1 <1>        -0.0668 
      3 C3         -5.1002   -4.9063    3.9613 C.ar      1 <1>        -0.0659 
      4 C4         -3.8543   -4.8504    3.3309 C.ar      1 <1>        -0.0267 
      5 C5         -3.4782   -5.8370    2.4092 C.ar      1 <1>         0.1106 
      6 C6         -4.3609   -6.8856    2.1183 C.ar      1 <1>         0.0905 
      7 C7         -3.9843   -7.9611    1.1201 C.2       1 <1>         0.2622 
      8 O8         -4.7953   -8.8359    0.8569 O.2       1 <1>        -0.3632 
      9 O9         -2.7822   -7.9436    0.5307 O.3       1 <1>        -0.2294 
     10 C10        -2.5421   -9.0715   -0.3256 C.3       1 <1>         0.2401 
     11 O11        -2.4562  -10.2853    0.4517 O.3       1 <1>        -0.2315 
     12 C12        -1.2006  -10.6954    0.3275 C.2       1 <1>         0.2494 
     13 C13        -0.3526   -9.8712   -0.5241 C.2       1 <1>         0.0291 
     14 C14        -1.1662   -8.8941   -0.9194 C.2       1 <1>        -0.0022 
     15 C15         1.0993  -10.0815   -0.8565 C.3       1 <1>        -0.0323 
     16 O16        -0.7890  -11.6987    0.8845 O.2       1 <1>        -0.3691 
     17 H1         -6.2947   -7.7519    2.5437 H         1 <1>         0.0643 
     18 H2         -6.9439   -6.0056    4.1680 H         1 <1>         0.0537 
     19 H3         -5.3874   -4.1366    4.6716 H         1 <1>         0.0627 
     20 H4         -3.1824   -4.0308    3.5653 H         1 <1>         0.0556 
     21 O21        -2.2319   -5.7838    1.7750 O.3       1 <1>        -0.3274 
     22 H6         -3.2917   -9.1670   -1.1302 H         1 <1>         0.1194 
     23 H7         -0.8844   -8.0714   -1.5752 H         1 <1>         0.0704 
     24 H8          1.1844  -10.8329   -1.6552 H         1 <1>         0.0347 
     25 H9          1.6341  -10.4438    0.0344 H         1 <1>         0.0347 
     26 H10         1.5632   -9.1423   -1.1932 H         1 <1>         0.0347 
     27 H5         -1.6570   -5.0900    2.0777 H         1 <1>         0.2510 
@<TRIPOS>BOND
     1    2    1 ar   
     2    2    3 ar   
     3    3    4 ar   
     4    4    5 ar   
     5    5    6 ar   
     6    1    6 ar   
     7    6    7 1    
     8    7    8 2    
     9    7    9 1    
    10    9   10 1    
    11   10   11 1    
    12   11   12 1    
    13   12   13 1    
    14   13   14 2    
    15   10   14 1    
    16   13   15 1    
    17   12   16 2    
    18    1   17 1    
    19    2   18 1    
    20    3   19 1    
    21    4   20 1    
    22    5   21 1    
    23   10   22 1    
    24   14   23 1    
    25   15   24 1    
    26   15   25 1    
    27   15   26 1    
    28   21   27 1    
@<TRIPOS>SUBSTRUCTURE
     1 ****        2 TEMP              0 ****  ****    0 ROOT 
@<TRIPOS>NORMAL
@<TRIPOS>FF_PBC
FORCE_FIELD_SETUP_FEATURE Force Field Setup information
v1.0  0 0.000000 0.000000 0.000000 0.000000 0.000000 0.000000 NONE 0 0 0 0 1 0 0 0 0 0 0 0 0
