#	Name:			PISM00281
#	Creating user name:	baoopengkun
#	Creation time:		Sun Mar 31 18:25:30 2019

#	Modifying user name:	baoopengkun
#	Modification time:	Sun Mar 31 18:26:37 2019

@<TRIPOS>MOLECULE
PISM00281
   48    49     1     1     0
SMALL
GAST_HUCK


@<TRIPOS>ATOM
      1 C1         -6.0877    4.8626   -4.3550 C.ar      1 <1>        -0.0795 
      2 C2         -4.7812    5.3104   -4.5738 C.ar      1 <1>        -0.0432 
      3 C3         -3.7525    4.3943   -4.8314 C.ar      1 <1>         0.1176 
      4 C4         -4.0501    3.0266   -4.8249 C.ar      1 <1>         0.1167 
      5 C5         -5.3527    2.5832   -4.5824 C.ar      1 <1>        -0.0403 
      6 C6         -6.3925    3.4977   -4.3803 C.ar      1 <1>        -0.0595 
      7 O7         -2.4348    4.8048   -5.0956 O.3       1 <1>        -0.3259 
      8 C8         -2.0535    6.1892   -5.1325 C.3       1 <1>         0.0567 
      9 O9         -3.0450    2.0854   -5.0620 O.3       1 <1>        -0.3256 
     10 C10        -2.1550    1.8851   -3.9522 C.3       1 <1>         0.0568 
     11 C11        -7.8332    3.0698   -4.1829 C.2       1 <1>        -0.0763 
     12 C12        -8.3415    1.9212   -4.6502 C.2       1 <1>        -0.0657 
     13 C13        -9.7835    1.5229   -4.4442 C.3       1 <1>         0.0326 
     14 N14       -10.5631    1.7349   -5.6907 N.3       1 <1>        -0.2603 
     15 C15       -10.6887    3.1621   -6.0914 C.3       1 <1>         0.1044 
     16 C16       -11.2562    4.0386   -5.0031 C.2       1 <1>         0.2460 
     17 O17       -12.3145    3.7777   -4.4532 O.2       1 <1>        -0.3691 
     18 O18       -10.5402    5.1161   -4.6778 O.3       1 <1>        -0.2917 
     19 H1         -6.8735    5.5886   -4.1679 H         1 <1>         0.0472 
     20 C20       -10.2197    0.8323   -6.8191 C.3       1 <1>         0.0358 
     21 C21       -10.3091   -0.6400   -6.3986 C.ar      1 <1>        -0.0324 
     22 C22        -9.2300   -1.5158   -6.5674 C.ar      1 <1>        -0.0608 
     23 C23        -9.3446   -2.8539   -6.1784 C.ar      1 <1>        -0.0349 
     24 C24       -10.5353   -3.3202   -5.6163 C.ar      1 <1>         0.1248 
     25 C25       -11.6113   -2.4479   -5.4384 C.ar      1 <1>        -0.0349 
     26 C26       -11.4975   -1.1105   -5.8293 C.ar      1 <1>        -0.0608 
     27 F27       -10.6446   -4.5947   -5.2504 F         1 <1>        -0.1893 
     28 H2         -4.5949    6.3768   -4.5398 H         1 <1>         0.0508 
     29 H3         -5.5298    1.5155   -4.5457 H         1 <1>         0.0473 
     30 H4         -0.9805    6.2324   -5.3696 H         1 <1>         0.0573 
     31 H5         -2.2116    6.6703   -4.1551 H         1 <1>         0.0573 
     32 H6         -2.6035    6.7308   -5.9172 H         1 <1>         0.0573 
     33 H7         -1.4118    1.1275   -4.2410 H         1 <1>         0.0573 
     34 H8         -2.7111    1.5199   -3.0745 H         1 <1>         0.0573 
     35 H9         -1.6242    2.8123   -3.6863 H         1 <1>         0.0573 
     36 H10        -8.4823    3.7545   -3.6369 H         1 <1>         0.0412 
     37 H11        -7.7255    1.2272   -5.2196 H         1 <1>         0.0691 
     38 H12       -10.2440    2.0931   -3.6226 H         1 <1>         0.0619 
     39 H13        -9.8175    0.4688   -4.1290 H         1 <1>         0.0619 
     40 H14       -11.3869    3.2553   -6.9367 H         1 <1>         0.0688 
     41 H15        -9.7099    3.5527   -6.4112 H         1 <1>         0.0688 
     42 H16       -10.9642    5.6103   -3.9848 H         1 <1>         0.2540 
     43 H17        -9.2234    1.0777   -7.2183 H         1 <1>         0.0585 
     44 H18       -10.9478    0.9565   -7.6360 H         1 <1>         0.0585 
     45 H19        -8.2980   -1.1654   -7.0002 H         1 <1>         0.0548 
     46 H20        -8.5114   -3.5365   -6.3105 H         1 <1>         0.0587 
     47 H21       -12.5327   -2.8129   -4.9973 H         1 <1>         0.0587 
     48 H22       -12.3346   -0.4339   -5.6888 H         1 <1>         0.0548 
@<TRIPOS>BOND
     1    2    1 ar   
     2    2    3 ar   
     3    3    4 ar   
     4    4    5 ar   
     5    5    6 ar   
     6    1    6 ar   
     7    3    7 1    
     8    7    8 1    
     9    4    9 1    
    10    9   10 1    
    11    6   11 1    
    12   11   12 2    
    13   12   13 1    
    14   13   14 1    
    15   14   15 1    
    16   15   16 1    
    17   16   17 2    
    18   16   18 1    
    19    1   19 1    
    20   14   20 1    
    21   20   21 1    
    22   21   22 ar   
    23   22   23 ar   
    24   23   24 ar   
    25   24   25 ar   
    26   25   26 ar   
    27   21   26 ar   
    28   24   27 1    
    29    2   28 1    
    30    5   29 1    
    31    8   30 1    
    32    8   31 1    
    33    8   32 1    
    34   10   33 1    
    35   10   34 1    
    36   10   35 1    
    37   11   36 1    
    38   12   37 1    
    39   13   38 1    
    40   13   39 1    
    41   15   40 1    
    42   15   41 1    
    43   18   42 1    
    44   20   43 1    
    45   20   44 1    
    46   22   45 1    
    47   23   46 1    
    48   25   47 1    
    49   26   48 1    
@<TRIPOS>SUBSTRUCTURE
     1 ****        2 TEMP              0 ****  ****    0 ROOT 
@<TRIPOS>NORMAL
@<TRIPOS>FF_PBC
FORCE_FIELD_SETUP_FEATURE Force Field Setup information
v1.0  0 0.000000 0.000000 0.000000 0.000000 0.000000 0.000000 NONE 0 0 0 0 1 0 0 0 0 0 0 0 0
