#	Name:			PISM00957.1
#	Creating user name:	baoopengkun
#	Creation time:		Thu Dec 13 10:35:31 2018

#	Modifying user name:	baoopengkun
#	Modification time:	Thu Dec 13 10:42:58 2018

@<TRIPOS>MOLECULE
PISM00957.1
   41    43     1     1     0
SMALL
GAST_HUCK


@<TRIPOS>ATOM
      1 C1         -9.6270    8.2398   -5.2973 C.ar      1 <1>        -0.0325 
      2 C2        -10.0089    9.5743   -5.4377 C.ar      1 <1>        -0.0338 
      3 C3        -11.3468    9.8746   -5.6987 C.ar      1 <1>        -0.0181 
      4 C4        -12.3037    8.8589   -5.7914 C.ar      1 <1>         0.0682 
      5 C5        -11.9525    7.5235   -5.5255 C.ar      1 <1>        -0.0060 
      6 C6        -10.5896    7.2291   -5.3684 C.ar      1 <1>        -0.0371 
      7 C7        -12.9898    6.3765   -5.4083 C.3       1 <1>         0.0868 
      8 O8        -14.3257    6.9086   -5.3849 O.3       1 <1>        -0.4212 
      9 C9        -12.8542    5.4243   -6.6320 C.3       1 <1>        -0.0358 
     10 C10       -12.8031    5.5986   -4.0700 C.3       1 <1>         0.0820 
     11 N11       -13.7995    4.5421   -3.9538 N.pl3     1 <1>        -0.1838 
     12 N12       -15.1341    4.7148   -3.7398 N.2       1 <1>        -0.1909 
     13 C13       -15.7814    3.6113   -3.6721 C.2       1 <1>         0.0618 
     14 N14       -14.7182    2.6639   -3.8640 N.2       1 <1>        -0.2870 
     15 C15       -13.6230    3.2570   -4.0158 C.2       1 <1>         0.1269 
     16 C16       -13.0717    6.1763   -7.9709 C.3       1 <1>        -0.0239 
     17 C17       -12.9659    5.1817   -9.1353 C.ar      1 <1>        -0.0434 
     18 C18       -11.7304    4.9381   -9.7462 C.ar      1 <1>        -0.0597 
     19 C19       -11.6364    4.0416  -10.8147 C.ar      1 <1>        -0.0546 
     20 C20       -12.7772    3.3790  -11.2747 C.ar      1 <1>         0.0330 
     21 C21       -14.0112    3.6118  -10.6620 C.ar      1 <1>        -0.0546 
     22 C22       -14.1041    4.5084   -9.5935 C.ar      1 <1>        -0.0597 
     23 Cl23      -12.6607    2.2587  -12.6165 Cl        1 <1>        -0.0771 
     24 Cl24      -13.9215    9.3455   -6.2672 Cl        1 <1>        -0.0421 
     25 H1         -8.5827    7.9891   -5.1339 H         1 <1>         0.0699 
     26 H2         -9.2737   10.3689   -5.3502 H         1 <1>         0.0853 
     27 H3        -11.6465   10.9089   -5.8357 H         1 <1>         0.0703 
     28 H4        -10.2452    6.2037   -5.3031 H         1 <1>         0.0849 
     29 H5        -15.0036    6.2456   -5.2873 H         1 <1>         0.1959 
     30 H6        -13.6054    4.6213   -6.5607 H         1 <1>         0.0218 
     31 H7        -11.8609    4.9498   -6.6417 H         1 <1>         0.0218 
     32 H8        -12.9561    6.2988   -3.2346 H         1 <1>         0.0570 
     33 H9        -11.8035    5.1551   -3.9670 H         1 <1>         0.0570 
     34 H10       -16.8449    3.4411   -3.5124 H         1 <1>         0.0863 
     35 H11       -12.6754    2.7445   -4.1765 H         1 <1>         0.1361 
     36 H12       -12.3194    6.9699   -8.1002 H         1 <1>         0.0420 
     37 H13       -14.0638    6.6552   -7.9784 H         1 <1>         0.0420 
     38 H14       -10.8374    5.4434   -9.3921 H         1 <1>         0.0557 
     39 H15       -10.6778    3.8583  -11.2892 H         1 <1>         0.0606 
     40 H16       -14.8965    3.0948  -11.0175 H         1 <1>         0.0606 
     41 H17       -15.0658    4.6782   -9.1196 H         1 <1>         0.0557 
@<TRIPOS>BOND
     1    2    1 ar   
     2    2    3 ar   
     3    3    4 ar   
     4    4    5 ar   
     5    5    6 ar   
     6    1    6 ar   
     7    5    7 1    
     8    7    8 1    
     9    7    9 1    
    10    7   10 1    
    11   10   11 1    
    12   11   12 1    
    13   12   13 2    
    14   13   14 1    
    15   14   15 2    
    16   11   15 1    
    17    9   16 1    
    18   16   17 1    
    19   17   18 ar   
    20   18   19 ar   
    21   19   20 ar   
    22   20   21 ar   
    23   21   22 ar   
    24   17   22 ar   
    25   20   23 1    
    26    4   24 1    
    27    1   25 1    
    28    2   26 1    
    29    3   27 1    
    30    6   28 1    
    31    8   29 1    
    32    9   30 1    
    33    9   31 1    
    34   10   32 1    
    35   10   33 1    
    36   13   34 1    
    37   15   35 1    
    38   16   36 1    
    39   16   37 1    
    40   18   38 1    
    41   19   39 1    
    42   21   40 1    
    43   22   41 1    
@<TRIPOS>SUBSTRUCTURE
     1 ****        2 TEMP              0 ****  ****    0 ROOT 
@<TRIPOS>NORMAL
@<TRIPOS>FF_PBC
FORCE_FIELD_SETUP_FEATURE Force Field Setup information
v1.0  0 0.000000 0.000000 0.000000 0.000000 0.000000 0.000000 NONE 0 0 0 0 1 0 0 0 0 0 0 0 0
