#	Name:			PISM00609
#	Creating user name:	baoopengkun
#	Creation time:		Mon Dec 10 09:59:57 2018

#	Modifying user name:	baoopengkun
#	Modification time:	Mon Dec 10 10:00:13 2018

@<TRIPOS>MOLECULE
PISM00609
   44    47     1     2     0
SMALL
GAST_HUCK


@<TRIPOS>ATOM
      1 C1          3.4997    9.5014   -6.6333 C.ar      1 <1>        -0.0348 
      2 C2          2.5746    9.8835   -5.6572 C.ar      1 <1>        -0.0180 
      3 C3          2.1613    8.9662   -4.6871 C.ar      1 <1>         0.0714 
      4 C4          2.6831    7.6699   -4.6858 C.ar      1 <1>        -0.0180 
      5 C5          3.6067    7.2883   -5.6631 C.ar      1 <1>        -0.0348 
      6 C6          4.0034    8.1966   -6.6507 C.ar      1 <1>         0.0068 
      7 C7          4.9886    7.7515   -7.7409 C.3       1 <1>         0.1921 
      8 C8          6.4371    7.9104   -7.2154 C.3       1 <1>         0.1073 
      9 N9          7.4891    7.4079   -8.0895 N.pl3     1 <1>        -0.1814 
     10 N10         8.8012    7.2578   -7.7524 N.2       1 <1>        -0.1908 
     11 C11         9.5156    6.7752   -8.6998 C.2       1 <1>         0.0618 
     12 N12         8.5236    6.6109   -9.7257 N.2       1 <1>        -0.2870 
     13 C13         7.3981    6.9847   -9.3142 C.2       1 <1>         0.1270 
     14 O14         4.7885    8.4474   -8.9780 O.3       1 <1>        -0.3814 
     15 C15         3.5956    7.9146   -9.5617 C.3       1 <1>         0.0672 
     16 C16         3.6410    6.4338   -9.1044 C.3       1 <1>         0.1004 
     17 O17         4.7122    6.4052   -8.1456 O.3       1 <1>        -0.3757 
     18 C18         2.2943    5.9403   -8.5157 C.3       1 <1>         0.0979 
     19 O19         2.4369    4.5830   -8.0629 O.3       1 <1>        -0.3145 
     20 C20         1.2844    4.0613   -7.4770 C.ar      1 <1>         0.1060 
     21 C21         1.0728    4.2184   -6.1051 C.ar      1 <1>        -0.0186 
     22 C22        -0.0901    3.7187   -5.5135 C.ar      1 <1>         0.0320 
     23 C23        -1.0339    3.0438   -6.2930 C.ar      1 <1>        -0.0584 
     24 C24        -0.8163    2.8741   -7.6638 C.ar      1 <1>        -0.0561 
     25 C25         0.3421    3.3844   -8.2572 C.ar      1 <1>         0.0680 
     26 Cl26        0.9907    9.4406   -3.4734 Cl        1 <1>        -0.0420 
     27 H1          3.8268   10.2205   -7.3782 H         1 <1>         0.0849 
     28 H2          2.1759   10.8929   -5.6504 H         1 <1>         0.0703 
     29 H3          2.3695    6.9618   -3.9253 H         1 <1>         0.0703 
     30 H4          4.0154    6.2821   -5.6572 H         1 <1>         0.0849 
     31 H5          6.5298    7.3672   -6.2633 H         1 <1>         0.0595 
     32 H6          6.6302    8.9780   -7.0344 H         1 <1>         0.0595 
     33 H7         10.5810    6.5510   -8.7201 H         1 <1>         0.0863 
     34 H8          6.5027    6.9401   -9.9308 H         1 <1>         0.1361 
     35 H9          3.6031    8.0395  -10.6556 H         1 <1>         0.0576 
     36 H10         2.7243    8.4464   -9.1484 H         1 <1>         0.0576 
     37 H11         3.9371    5.7662   -9.9300 H         1 <1>         0.0635 
     38 H12         1.5194    5.9953   -9.2975 H         1 <1>         0.0641 
     39 H13         1.9913    6.5837   -7.6764 H         1 <1>         0.0641 
     40 H14         1.8136    4.7292   -5.5014 H         1 <1>         0.0547 
     41 Cl41       -0.3620    3.9398   -3.7974 Cl        1 <1>        -0.0734 
     42 H42        -1.9350    2.6520   -5.8321 H         1 <1>         0.0529 
     43 H43        -1.5460    2.3463   -8.2695 H         1 <1>         0.0595 
     44 Cl44        0.6099    3.1765   -9.9762 Cl        1 <1>        -0.0786 
@<TRIPOS>BOND
     1    2    1 ar   
     2    2    3 ar   
     3    3    4 ar   
     4    4    5 ar   
     5    5    6 ar   
     6    1    6 ar   
     7    6    7 1    
     8    7    8 1    
     9    8    9 1    
    10    9   10 1    
    11   10   11 2    
    12   11   12 1    
    13   12   13 2    
    14    9   13 1    
    15    7   14 1    
    16   14   15 1    
    17   15   16 1    
    18   16   17 1    
    19    7   17 1    
    20   16   18 1    
    21   18   19 1    
    22   19   20 1    
    23   20   21 ar   
    24   21   22 ar   
    25   22   23 ar   
    26   23   24 ar   
    27   24   25 ar   
    28   20   25 ar   
    29    3   26 1    
    30    1   27 1    
    31    2   28 1    
    32    4   29 1    
    33    5   30 1    
    34    8   31 1    
    35    8   32 1    
    36   11   33 1    
    37   13   34 1    
    38   15   35 1    
    39   15   36 1    
    40   16   37 1    
    41   18   38 1    
    42   18   39 1    
    43   21   40 1    
    44   22   41 1    
    45   23   42 1    
    46   24   43 1    
    47   25   44 1    
@<TRIPOS>SUBSTRUCTURE
     1 ****        2 TEMP              0 ****  ****    0 ROOT 
@<TRIPOS>NORMAL
@<TRIPOS>FF_PBC
FORCE_FIELD_SETUP_FEATURE Force Field Setup information
v1.0  0 0.000000 0.000000 0.000000 0.000000 0.000000 0.000000 NONE 0 0 0 0 1 0 0 0 0 0 0 0 0
@<TRIPOS>RENDERING_ATTRS
ANTIALIASED_LINES 
*
