#	Name:			PISM00477
#	Creating user name:	baoopengkun
#	Creation time:		Wed Feb 27 22:08:35 2019

#	Modifying user name:	baoopengkun
#	Modification time:	Wed Feb 27 22:10:22 2019

@<TRIPOS>MOLECULE
PISM00477
   10    10     1     1     0
SMALL
GAST_HUCK


@<TRIPOS>ATOM
      1 C1         23.1425    3.6677  -10.7487 C.2       1 <1>        -0.0735 
      2 C2         24.5722    4.0982  -10.6570 C.3       1 <1>        -0.0207 
      3 C3         23.9594    2.6827  -10.4779 C.2       1 <1>        -0.0951 
      4 C4         21.8347    4.3499  -11.0235 C.3       1 <1>        -0.0323 
      5 H2         24.8767    4.6485   -9.7547 H         1 <1>         0.0331 
      6 H3         25.0939    4.3210  -11.5994 H         1 <1>         0.0331 
      7 H4         24.1051    1.6233  -10.2728 H         1 <1>         0.0304 
      8 H1         21.8618    4.8138  -12.0204 H         1 <1>         0.0417 
      9 H5         21.6564    5.1266  -10.2655 H         1 <1>         0.0417 
     10 H6         21.0192    3.6127  -10.9875 H         1 <1>         0.0417 
@<TRIPOS>BOND
     1    2    1 1    
     2    2    3 1    
     3    1    3 2    
     4    1    4 1    
     5    2    5 1    
     6    2    6 1    
     7    3    7 1    
     8    4    8 1    
     9    4    9 1    
    10    4   10 1    
@<TRIPOS>SUBSTRUCTURE
     1 ****        2 TEMP              0 ****  ****    0 ROOT 
@<TRIPOS>NORMAL
@<TRIPOS>FF_PBC
FORCE_FIELD_SETUP_FEATURE Force Field Setup information
v1.0  0 0.000000 0.000000 0.000000 0.000000 0.000000 0.000000 NONE 0 0 0 0 1 0 0 0 0 0 0 0 0
