#	Name:			PISM00155
#	Creating user name:	14062
#	Creation time:		Wed Jun 19 15:19:13 2019

#	Modifying user name:	14062
#	Modification time:	Wed Jun 19 15:20:31 2019

@<TRIPOS>MOLECULE
PISM00155
   19    19     1     1     0
SMALL
GAST_HUCK


@<TRIPOS>ATOM
      1 C1         -4.7622   -1.0121   -3.5404 C.3       1 BENZYL      0.1704 
      2 O2         -4.4026   -2.3007   -4.0759 O.3       1 BENZYL     -0.2949 
      3 C2         -3.9209   -2.2664   -5.3846 C.ar      1 BENZYL      0.1092 
      4 C3         -4.8063   -2.4195   -6.4548 C.ar      1 BENZYL     -0.0315 
      5 C4         -4.3312   -2.3744   -7.7689 C.ar      1 BENZYL     -0.0564 
      6 C5         -2.9683   -2.1826   -8.0122 C.ar      1 BENZYL      0.0291 
      7 C6         -2.0813   -2.0383   -6.9417 C.ar      1 BENZYL     -0.0426 
      8 C7         -2.5563   -2.0810   -5.6279 C.ar      1 BENZYL      0.0687 
      9 Cl9        -2.3717   -2.1232   -9.6580 Cl        1 BENZYL     -0.0810 
     10 Cl10       -1.4399   -1.9010   -4.2897 Cl        1 BENZYL     -0.0787 
     11 C11        -5.2831   -1.1178   -2.1222 C.2       1 BENZYL      0.2624 
     12 O12        -5.3802   -2.1903   -1.5513 O.2       1 BENZYL     -0.3676 
     13 O13        -5.6504   -0.0053   -1.4737 O.3       1 BENZYL     -0.2907 
     14 H1         -5.5511   -0.5630   -4.1631 H         1 BENZYL      0.0876 
     15 H2         -3.8809   -0.3525   -3.5353 H         1 BENZYL      0.0876 
     16 H3         -5.8626   -2.5737   -6.2603 H         1 BENZYL      0.0543 
     17 H4         -5.0185   -2.4884   -8.6011 H         1 BENZYL      0.0597 
     18 H5         -1.0232   -1.8931   -7.1309 H         1 BENZYL      0.0601 
     19 H6         -5.5551    0.8011   -1.9652 H         1 BENZYL      0.2540 
@<TRIPOS>BOND
     1    2    3 1    
     2    3    4 ar   
     3    3    8 ar   
     4    8    7 ar   
     5    7    6 ar   
     6    6    5 ar   
     7    5    4 ar   
     8    2    1 1    
     9    6    9 1    
    10    8   10 1    
    11    1   11 1    
    12   11   12 2    
    13   11   13 1    
    14    1   14 1    
    15    1   15 1    
    16    4   16 1    
    17    5   17 1    
    18    7   18 1    
    19   13   19 1    
@<TRIPOS>SUBSTRUCTURE
     1 BENZYL      2 PERM              0 ****  ****    0 ROOT 
@<TRIPOS>NORMAL
@<TRIPOS>FF_PBC
FORCE_FIELD_SETUP_FEATURE Force Field Setup information
v1.0  0 0.000000 0.000000 0.000000 0.000000 0.000000 0.000000 NONE 0 0 0 0 1 0 0 0 0 0 0 0 0
