#	Name:			PISM00954.1
#	Creating user name:	baoopengkun
#	Creation time:		Thu Dec 13 10:18:09 2018

#	Modifying user name:	baoopengkun
#	Modification time:	Thu Dec 13 10:20:35 2018

@<TRIPOS>MOLECULE
PISM00954.1
   43    44     1     1     0
SMALL
GAST_HUCK


@<TRIPOS>ATOM
      1 C1        -11.9211   10.3333   -3.9921 C.3       1 <1>        -0.0576 
      2 C2        -13.4715   10.3870   -4.1284 C.3       1 <1>        -0.0087 
      3 C3        -13.9059   11.8852   -4.2156 C.3       1 <1>        -0.0576 
      4 C4        -13.9050    9.7043   -5.4647 C.3       1 <1>        -0.0576 
      5 C5        -14.1552    9.7321   -2.8757 C.3       1 <1>         0.0928 
      6 O6        -13.9090   10.6293   -1.7751 O.3       1 <1>        -0.3880 
      7 C7        -13.6881    8.2704   -2.5522 C.3       1 <1>         0.1146 
      8 N8        -12.5361    8.2436   -1.6552 N.pl3     1 <1>        -0.1724 
      9 N9        -12.3332    9.0245   -0.5562 N.2       1 <1>        -0.1898 
     10 C10       -11.2164    8.8016    0.0295 C.2       1 <1>         0.0618 
     11 N11       -10.6776    7.7692   -0.8111 N.2       1 <1>        -0.2870 
     12 C12       -11.4718    7.5039   -1.7453 C.2       1 <1>         0.1282 
     13 C13       -14.8090    7.3512   -1.9755 C.3       1 <1>        -0.0077 
     14 C14       -15.4103    7.8156   -0.6205 C.3       1 <1>        -0.0160 
     15 C15       -16.3245    6.7907    0.0803 C.ar      1 <1>        -0.0426 
     16 C16       -16.9586    5.7390   -0.5957 C.ar      1 <1>        -0.0597 
     17 C17       -17.7590    4.8263    0.0982 C.ar      1 <1>        -0.0546 
     18 C18       -17.9462    4.9591    1.4756 C.ar      1 <1>         0.0330 
     19 C19       -17.3316    6.0117    2.1566 C.ar      1 <1>        -0.0546 
     20 C20       -16.5311    6.9214    1.4598 C.ar      1 <1>        -0.0597 
     21 Cl21      -18.9472    3.8130    2.3435 Cl        1 <1>        -0.0771 
     22 H1        -11.4432   10.8895   -4.8131 H         1 <1>         0.0236 
     23 H2        -11.5473    9.3004   -4.0272 H         1 <1>         0.0236 
     24 H3        -11.6027   10.7826   -3.0389 H         1 <1>         0.0236 
     25 H4        -15.0026   11.9658   -4.2651 H         1 <1>         0.0236 
     26 H5        -13.4874   12.3685   -5.1119 H         1 <1>         0.0236 
     27 H6        -13.5576   12.4592   -3.3436 H         1 <1>         0.0236 
     28 H7        -13.5491    8.6700   -5.5575 H         1 <1>         0.0236 
     29 H8        -13.4961   10.2564   -6.3250 H         1 <1>         0.0236 
     30 H9        -15.0019    9.7001   -5.5554 H         1 <1>         0.0236 
     31 H10       -15.2412    9.7224   -3.0674 H         1 <1>         0.0631 
     32 H11       -14.2033   10.3174   -0.9279 H         1 <1>         0.2099 
     33 H12       -13.3891    7.7757   -3.4867 H         1 <1>         0.0707 
     34 H13       -10.7948    9.2680    0.9184 H         1 <1>         0.0863 
     35 H14       -11.2688    6.7551   -2.5100 H         1 <1>         0.1361 
     36 H15       -14.3775    6.3469   -1.8268 H         1 <1>         0.0320 
     37 H16       -15.6119    7.2788   -2.7275 H         1 <1>         0.0320 
     38 H17       -16.0052    8.7310   -0.7598 H         1 <1>         0.0428 
     39 H18       -14.5773    8.0310    0.0658 H         1 <1>         0.0428 
     40 H19       -16.8476    5.6087   -1.6648 H         1 <1>         0.0557 
     41 H20       -18.2392    4.0100   -0.4321 H         1 <1>         0.0606 
     42 H21       -17.4777    6.1205    3.2264 H         1 <1>         0.0606 
     43 H22       -16.0680    7.7385    2.0043 H         1 <1>         0.0557 
@<TRIPOS>BOND
     1    2    1 1    
     2    2    3 1    
     3    2    4 1    
     4    2    5 1    
     5    5    6 1    
     6    5    7 1    
     7    7    8 1    
     8    8    9 1    
     9    9   10 2    
    10   10   11 1    
    11   11   12 2    
    12    8   12 1    
    13    7   13 1    
    14   13   14 1    
    15   14   15 1    
    16   15   16 ar   
    17   16   17 ar   
    18   17   18 ar   
    19   18   19 ar   
    20   19   20 ar   
    21   15   20 ar   
    22   18   21 1    
    23    1   22 1    
    24    1   23 1    
    25    1   24 1    
    26    3   25 1    
    27    3   26 1    
    28    3   27 1    
    29    4   28 1    
    30    4   29 1    
    31    4   30 1    
    32    5   31 1    
    33    6   32 1    
    34    7   33 1    
    35   10   34 1    
    36   12   35 1    
    37   13   36 1    
    38   13   37 1    
    39   14   38 1    
    40   14   39 1    
    41   16   40 1    
    42   17   41 1    
    43   19   42 1    
    44   20   43 1    
@<TRIPOS>SUBSTRUCTURE
     1 ****        2 TEMP              0 ****  ****    0 ROOT 
@<TRIPOS>NORMAL
@<TRIPOS>FF_PBC
FORCE_FIELD_SETUP_FEATURE Force Field Setup information
v1.0  0 0.000000 0.000000 0.000000 0.000000 0.000000 0.000000 NONE 0 0 0 0 1 0 0 0 0 0 0 0 0
