#	Name:			PISM00567
#	Creating user name:	baoopengkun
#	Creation time:		Wed Dec 19 10:55:03 2018

#	Modifying user name:	baoopengkun
#	Modification time:	Wed Dec 19 10:58:38 2018

@<TRIPOS>MOLECULE
PISM00567
   14    14     1     1     0
SMALL
USER_CHARGES


@<TRIPOS>ATOM
      1 Br1        22.4210   28.9391  -43.0332 Br        1 <1>         0.0000 
      2 C2         21.4580   28.2942  -41.5902 C.ar      1 <1>         0.0000 
      3 C3         20.7145   27.1163  -41.7066 C.ar      1 <1>         0.0000 
      4 C4         19.9927   26.6444  -40.6051 C.ar      1 <1>         0.0000 
      5 C5         20.0380   27.3726  -39.4118 C.ar      1 <1>         0.0000 
      6 C6         20.7967   28.5448  -39.3479 C.ar      1 <1>         0.0000 
      7 N7         21.4828   28.9749  -40.4262 N.ar      1 <1>         0.0000 
      8 Br8        20.8714   29.5263  -37.7805 Br        1 <1>         0.0000 
      9 C9         19.1782   25.3718  -40.6997 C.2       1 <1>         0.0000 
     10 O10        19.1531   24.7492  -41.7512 O.2       1 <1>         0.0000 
     11 O11        18.4964   24.9456  -39.6300 O.3       1 <1>         0.0000 
     12 H1         20.7025   26.5776  -42.6481 H         1 <1>         0.0000 
     13 H2         19.4910   27.0364  -38.5375 H         1 <1>         0.0000 
     14 H3         18.0141   24.1391  -39.7801 H         1 <1>         0.0000 
@<TRIPOS>BOND
     1    2    1 1    
     2    2    3 ar   
     3    3    4 ar   
     4    4    5 ar   
     5    5    6 ar   
     6    6    7 ar   
     7    2    7 ar   
     8    6    8 1    
     9    4    9 1    
    10    9   10 2    
    11    9   11 1    
    12    3   12 1    
    13    5   13 1    
    14   11   14 1    
@<TRIPOS>SUBSTRUCTURE
     1 ****        2 TEMP              0 ****  ****    0 ROOT 
@<TRIPOS>NORMAL
@<TRIPOS>FF_PBC
FORCE_FIELD_SETUP_FEATURE Force Field Setup information
v1.0  0 0.000000 0.000000 0.000000 0.000000 0.000000 0.000000 NONE 0 0 0 0 0 0 0 0 0 0 0 0 0
