#	Name:			PISM01045
#	Creating user name:	14062
#	Creation time:		Sun Oct 20 23:06:15 2019

#	Modifying user name:	14062
#	Modification time:	Sun Oct 20 23:08:12 2019

@<TRIPOS>MOLECULE
PISM01045
   64    66     1     1     0
SMALL
GAST_HUCK


@<TRIPOS>ATOM
      1 F          -7.9425    0.1970    0.2404 F         1 <1>        -0.2204 
      2 F          -6.4788    1.5226   -0.7517 F         1 <1>        -0.2204 
      3 F          -7.6037    0.0322   -1.9427 F         1 <1>        -0.2204 
      4 O          -2.3189    1.7529   -0.8247 O.3       1 <1>        -0.2773 
      5 O          -2.6552    1.0672    1.2888 O.2       1 <1>        -0.3118 
      6 O           9.4488   -1.8709   -2.0548 O.3       1 <1>        -0.3941 
      7 N           1.0834   -0.1285    1.5032 N.3       1 <1>        -0.2915 
      8 C          -1.3584   -0.3524   -0.1499 C.3       1 <1>         0.0747 
      9 C          -1.1178   -1.2291    1.1143 C.3       1 <1>        -0.0251 
     10 C           0.0282    0.0571   -0.7224 C.3       1 <1>        -0.0251 
     11 C          -0.1911   -0.5295    2.1437 C.3       1 <1>         0.0007 
     12 C           0.8792    0.7792    0.3492 C.3       1 <1>         0.0007 
     13 C          -2.1494   -1.1498   -1.2315 C.3       1 <1>         0.0004 
     14 C          -2.1673    0.8835    0.1846 C.2       1 <1>         0.2638 
     15 C           2.1154    0.3460    2.4584 C.3       1 <1>         0.0330 
     16 C          -3.5810   -1.4589   -0.7647 C.ar      1 <1>        -0.0146 
     17 C           3.4927    0.3838    1.7844 C.ar      1 <1>        -0.0282 
     18 C          -4.6123   -0.5427   -1.0027 C.ar      1 <1>        -0.0310 
     19 C          -3.8721   -2.6560   -0.1006 C.ar      1 <1>        -0.0318 
     20 C          -5.9057   -0.7767   -0.5238 C.ar      1 <1>         0.0409 
     21 C          -3.0981    2.9160   -0.4802 C.3       1 <1>         0.0731 
     22 C           4.3465    1.4825    1.9359 C.ar      1 <1>        -0.0573 
     23 C           3.8987   -0.7008    0.9994 C.ar      1 <1>        -0.0573 
     24 C          -5.1672   -2.9092    0.3596 C.ar      1 <1>        -0.0378 
     25 C          -6.1808   -1.9693    0.1537 C.ar      1 <1>        -0.0377 
     26 C          -7.0066    0.2681   -0.7445 C.3       1 <1>         0.3750 
     27 C          -3.2233    3.7958   -1.7461 C.3       1 <1>        -0.0372 
     28 C           5.5907    1.4999    1.2983 C.ar      1 <1>        -0.0525 
     29 C           5.1426   -0.6853    0.3620 C.ar      1 <1>        -0.0525 
     30 C           5.9889    0.4169    0.5096 C.ar      1 <1>         0.0183 
     31 C           7.2692    0.4351   -0.1505 C.1       1 <1>        -0.0719 
     32 C           8.3381    0.4478   -0.7030 C.1       1 <1>        -0.0984 
     33 C           9.6331    0.4602   -1.3755 C.3       1 <1>         0.0314 
     34 C           9.6365   -0.5362   -2.5606 C.3       1 <1>         0.0547 
     35 H          -0.6315   -2.1712    0.8131 H         1 <1>         0.0270 
     36 H          -2.0736   -1.4774    1.6027 H         1 <1>         0.0270 
     37 H          -0.0916    0.7122   -1.6012 H         1 <1>         0.0270 
     38 H           0.5766   -0.8438   -1.0432 H         1 <1>         0.0270 
     39 H          -0.6775    0.3536    2.5870 H         1 <1>         0.0427 
     40 H           0.0049   -1.2455    2.9592 H         1 <1>         0.0427 
     41 H           1.8435    1.0496   -0.1112 H         1 <1>         0.0427 
     42 H           0.3867    1.7116    0.6710 H         1 <1>         0.0427 
     43 H          -1.6270   -2.0882   -1.4747 H         1 <1>         0.0422 
     44 H          -2.2030   -0.5647   -2.1636 H         1 <1>         0.0422 
     45 H           2.2150   -0.3484    3.3069 H         1 <1>         0.0592 
     46 H           1.8307    1.3343    2.8531 H         1 <1>         0.0592 
     47 H          -4.4120    0.3615   -1.5673 H         1 <1>         0.0780 
     48 H          -3.0939   -3.3950    0.0628 H         1 <1>         0.0803 
     49 H          -4.1090    2.6317   -0.1403 H         1 <1>         0.0609 
     50 H          -2.6005    3.4925    0.3186 H         1 <1>         0.0609 
     51 H           4.0495    2.3278    2.5483 H         1 <1>         0.0560 
     52 H           3.2448   -1.5594    0.8828 H         1 <1>         0.0560 
     53 H          -5.3865   -3.8377    0.8788 H         1 <1>         0.0683 
     54 H          -7.1826   -2.1712    0.5201 H         1 <1>         0.0802 
     55 H          -2.2227    4.0928   -2.0967 H         1 <1>         0.0255 
     56 H          -3.7247    3.2289   -2.5462 H         1 <1>         0.0255 
     57 H          -3.8100    4.7027   -1.5305 H         1 <1>         0.0255 
     58 H           6.2489    2.3552    1.4155 H         1 <1>         0.0614 
     59 H           5.4516   -1.5287   -0.2476 H         1 <1>         0.0614 
     60 H           9.8283    1.4845   -1.7299 H         1 <1>         0.0417 
     61 H          10.4091    0.1792   -0.6468 H         1 <1>         0.0417 
     62 H          10.6027   -0.4659   -3.0898 H         1 <1>         0.0566 
     63 H           8.8276   -0.2699   -3.2630 H         1 <1>         0.0566 
     64 H           9.4353   -2.5330   -2.7395 H         1 <1>         0.2094 
@<TRIPOS>BOND
     1   26    1 1    
     2   26    2 1    
     3   26    3 1    
     4   14    4 1    
     5    4   21 1    
     6   14    5 2    
     7   34    6 1    
     8    6   64 1    
     9    7   11 1    
    10    7   12 1    
    11   15    7 1    
    12    9    8 1    
    13   10    8 1    
    14    8   13 1    
    15    8   14 1    
    16   11    9 1    
    17    9   35 1    
    18    9   36 1    
    19   12   10 1    
    20   10   37 1    
    21   10   38 1    
    22   11   39 1    
    23   11   40 1    
    24   12   41 1    
    25   12   42 1    
    26   13   16 1    
    27   13   43 1    
    28   13   44 1    
    29   17   15 1    
    30   15   45 1    
    31   15   46 1    
    32   16   18 ar   
    33   16   19 ar   
    34   22   17 ar   
    35   23   17 ar   
    36   18   20 ar   
    37   18   47 1    
    38   19   24 ar   
    39   19   48 1    
    40   20   25 ar   
    41   20   26 1    
    42   21   27 1    
    43   21   49 1    
    44   21   50 1    
    45   28   22 ar   
    46   22   51 1    
    47   29   23 ar   
    48   23   52 1    
    49   24   25 ar   
    50   24   53 1    
    51   25   54 1    
    52   27   55 1    
    53   27   56 1    
    54   27   57 1    
    55   30   28 ar   
    56   28   58 1    
    57   30   29 ar   
    58   29   59 1    
    59   31   30 1    
    60   32   31 3    
    61   33   32 1    
    62   33   34 1    
    63   33   60 1    
    64   33   61 1    
    65   34   62 1    
    66   34   63 1    
@<TRIPOS>SUBSTRUCTURE
     1 ****        8 TEMP              0 ****  ****    0 ROOT 
@<TRIPOS>NORMAL
@<TRIPOS>FF_PBC
FORCE_FIELD_SETUP_FEATURE Force Field Setup information
v1.0  0 0.000000 0.000000 0.000000 0.000000 0.000000 0.000000 NONE 0 0 0 0 1 0 0 0 0 0 0 0 0
