#	Name:			PISM00887
#	Creating user name:	baoopengkun
#	Creation time:		Fri Dec 14 09:30:18 2018

#	Modifying user name:	baoopengkun
#	Modification time:	Fri Dec 14 09:42:26 2018

@<TRIPOS>MOLECULE
PISM00887
   29    31     1     1     0
SMALL
GAST_HUCK


@<TRIPOS>ATOM
      1 C1         10.5906   14.4242   -7.6822 C.ar      1 <1>         0.1265 
      2 C2         10.7147   15.7662   -7.3177 C.ar      1 <1>         0.0009 
      3 C3         10.2391   16.1912   -6.0760 C.ar      1 <1>         0.1265 
      4 C4          9.6436   15.2759   -5.2043 C.ar      1 <1>        -0.0308 
      5 C5          9.5168   13.9284   -5.5611 C.ar      1 <1>        -0.0235 
      6 C6          9.9950   13.5097   -6.8092 C.ar      1 <1>        -0.0308 
      7 C7          8.8649   12.9777   -4.5781 C.2       1 <1>         0.0685 
      8 N8          8.3518   13.4087   -3.2997 N.2       1 <1>        -0.2163 
      9 N9          7.8778   12.2713   -2.7646 N.2       1 <1>        -0.0855 
     10 N10         8.0624   11.2449   -3.6203 N.pl3     1 <1>        -0.1231 
     11 C11         8.6604   11.6616   -4.7015 C.2       1 <1>         0.0935 
     12 C12         7.6816    9.8724   -3.3362 C.3       1 <1>         0.2444 
     13 C13         6.2467    9.6804   -3.7617 C.2       1 <1>         0.0018 
     14 C14         6.1681    8.7797   -4.7398 C.2       1 <1>         0.0295 
     15 C15         7.5534    8.3716   -4.9414 C.2       1 <1>         0.2498 
     16 O16         8.4422    8.9488   -4.1422 O.3       1 <1>        -0.2283 
     17 O17         7.8798    7.5547   -5.7845 O.2       1 <1>        -0.3691 
     18 C18         4.9512    8.2825   -5.4711 C.3       1 <1>        -0.0323 
     19 F19        10.3533   17.4689   -5.7233 F         1 <1>        -0.1857 
     20 F20        11.0410   14.0151   -8.8652 F         1 <1>        -0.1857 
     21 H1         11.1779   16.4746   -7.9954 H         1 <1>         0.0556 
     22 H2          9.2800   15.6257   -4.2440 H         1 <1>         0.0533 
     23 H3          9.9147   12.4772   -7.1246 H         1 <1>         0.0533 
     24 H4          8.9361   11.0322   -5.5455 H         1 <1>         0.1081 
     25 H5          7.8210    9.6503   -2.2660 H         1 <1>         0.1244 
     26 H6          5.4016   10.2140   -3.3282 H         1 <1>         0.0709 
     27 H7          5.0102    8.5897   -6.5258 H         1 <1>         0.0347 
     28 H8          4.0294    8.6899   -5.0293 H         1 <1>         0.0347 
     29 H9          4.9175    7.1840   -5.4200 H         1 <1>         0.0347 
@<TRIPOS>BOND
     1    2    1 ar   
     2    2    3 ar   
     3    3    4 ar   
     4    4    5 ar   
     5    5    6 ar   
     6    1    6 ar   
     7    5    7 1    
     8    7    8 1    
     9    8    9 2    
    10    9   10 1    
    11   10   11 1    
    12    7   11 2    
    13   10   12 1    
    14   12   13 1    
    15   13   14 2    
    16   14   15 1    
    17   15   16 1    
    18   12   16 1    
    19   15   17 2    
    20   14   18 1    
    21    3   19 1    
    22    1   20 1    
    23    2   21 1    
    24    4   22 1    
    25    6   23 1    
    26   11   24 1    
    27   12   25 1    
    28   13   26 1    
    29   18   27 1    
    30   18   28 1    
    31   18   29 1    
@<TRIPOS>SUBSTRUCTURE
     1 ****        2 TEMP              0 ****  ****    0 ROOT 
@<TRIPOS>NORMAL
@<TRIPOS>FF_PBC
FORCE_FIELD_SETUP_FEATURE Force Field Setup information
v1.0  0 0.000000 0.000000 0.000000 0.000000 0.000000 0.000000 NONE 0 0 0 0 1 0 0 0 0 0 0 0 0
