#	Name:			PISM00141
#	Creating user name:	14062
#	Creation time:		Sat Oct 19 21:29:33 2019

#	Modifying user name:	14062
#	Modification time:	Sat Oct 19 21:31:30 2019

@<TRIPOS>MOLECULE
PISM00141
   41    44     1     1     0
SMALL
GAST_HUCK


@<TRIPOS>ATOM
      1 S          -4.6266   -2.0059   -0.2681 S.o2      1 <1>         0.1531 
      2 O           0.2429   -1.5761    1.7783 O.2       1 <1>        -0.2290 
      3 O           1.8941    2.4873    0.8939 O.2       1 <1>        -0.2290 
      4 O          -4.3305   -2.9557   -1.3669 O.3       1 <1>        -0.0415 
      5 O          -4.6399   -2.8327    0.9094 O.2       1 <1>        -0.1384 
      6 O          -5.8530   -1.3733   -0.6760 O.2       1 <1>        -0.1384 
      7 N           1.1248    0.4406    1.3602 N.ar      1 <1>        -0.2275 
      8 N           5.8139   -1.5789   -2.3147 N.pl3     1 <1>        -0.3406 
      9 C          -1.2259    1.0982    0.0242 C.ar      1 <1>         0.0563 
     10 C          -1.0760   -0.1632    0.6103 C.ar      1 <1>         0.1133 
     11 C          -0.1850    2.0288    0.1238 C.ar      1 <1>         0.1114 
     12 C          -2.4087    1.4210   -0.6549 C.ar      1 <1>         0.0515 
     13 C           0.1208   -0.4623    1.2733 C.ar      1 <1>         0.3059 
     14 C           0.9836    1.6670    0.8052 C.ar      1 <1>         0.3058 
     15 C           2.4191    0.0666    1.9702 C.3       1 <1>         0.0560 
     16 C          -2.1170   -1.0980    0.5242 C.ar      1 <1>         0.0365 
     17 C          -3.3030   -0.7857   -0.1493 C.ar      1 <1>         0.1800 
     18 C          -3.4379    0.4739   -0.7449 C.ar      1 <1>         0.0305 
     19 C          -0.3304    3.2951   -0.4568 C.ar      1 <1>         0.0086 
     20 C          -2.5442    2.6899   -1.2333 C.ar      1 <1>         0.0028 
     21 C           3.3445   -0.3729    0.8286 C.ar      1 <1>        -0.0397 
     22 C          -1.5082    3.6231   -1.1337 C.ar      1 <1>         0.0001 
     23 C           3.2606   -1.6731    0.3192 C.ar      1 <1>        -0.0704 
     24 C           4.2783    0.5130    0.2801 C.ar      1 <1>        -0.0704 
     25 C           4.0871   -2.0767   -0.7336 C.ar      1 <1>        -0.0509 
     26 C           5.1038    0.1088   -0.7732 C.ar      1 <1>        -0.0509 
     27 C           5.0145   -1.1887   -1.2909 C.ar      1 <1>         0.0284 
     28 H           2.8613    0.9105    2.5242 H         1 <1>         0.0585 
     29 H           2.3282   -0.7554    2.6983 H         1 <1>         0.0585 
     30 H          -2.0138   -2.0760    0.9854 H         1 <1>         0.1123 
     31 H          -4.3534    0.7165   -1.2763 H         1 <1>         0.1129 
     32 H           0.4645    4.0341   -0.3898 H         1 <1>         0.1103 
     33 H          -3.4515    2.9665   -1.7642 H         1 <1>         0.1108 
     34 H          -1.6182    4.6068   -1.5834 H         1 <1>         0.0787 
     35 H           2.5519   -2.3789    0.7396 H         1 <1>         0.0525 
     36 H           4.3697    1.5226    0.6678 H         1 <1>         0.0525 
     37 H           4.0032   -3.0891   -1.1154 H         1 <1>         0.0499 
     38 H           5.8180    0.8137   -1.1866 H         1 <1>         0.0499 
     39 Na39       -5.1259   -3.5479   -1.2963 Na        1 <1>         2.0000 
     40 H           6.4980   -0.9257   -2.7253 H         1 <1>         0.1698 
     41 H           5.7546   -2.5361   -2.6928 H         1 <1>         0.1698 
@<TRIPOS>BOND
     1    1    4 1    
     2    1    5 2    
     3    1    6 2    
     4   17    1 1    
     5   13    2 2    
     6   14    3 2    
     7    4   39 1    
     8    7   13 ar   
     9    7   14 ar   
    10   15    7 1    
    11   27    8 1    
    12    8   40 1    
    13    8   41 1    
    14   10    9 ar   
    15   11    9 ar   
    16    9   12 ar   
    17   13   10 ar   
    18   10   16 ar   
    19   14   11 ar   
    20   11   19 ar   
    21   12   18 ar   
    22   12   20 ar   
    23   21   15 1    
    24   15   28 1    
    25   15   29 1    
    26   16   17 ar   
    27   16   30 1    
    28   17   18 ar   
    29   18   31 1    
    30   19   22 ar   
    31   19   32 1    
    32   22   20 ar   
    33   20   33 1    
    34   23   21 ar   
    35   21   24 ar   
    36   22   34 1    
    37   25   23 ar   
    38   23   35 1    
    39   24   26 ar   
    40   24   36 1    
    41   25   27 ar   
    42   25   37 1    
    43   26   27 ar   
    44   26   38 1    
@<TRIPOS>SUBSTRUCTURE
     1 ****        9 TEMP              0 ****  ****    0 ROOT 
@<TRIPOS>NORMAL
@<TRIPOS>FF_PBC
FORCE_FIELD_SETUP_FEATURE Force Field Setup information
v1.0  0 0.000000 0.000000 0.000000 0.000000 0.000000 0.000000 NONE 0 0 0 0 1 0 0 0 0 0 0 0 0
