#	Name:			PISM01135
#	Creating user name:	14062
#	Creation time:		Sat Apr 06 23:30:40 2019

#	Modifying user name:	14062
#	Modification time:	Sat Apr 06 23:33:55 2019

@<TRIPOS>MOLECULE
PISM01135
   31    32     2     2     0
SMALL
GAST_HUCK


@<TRIPOS>ATOM
      1 S1        -20.3847    4.3955    0.9072 S.o2      1 BENZYL      0.0928 
      2 N2        -19.5185    5.5129    0.0885 N.am      1 BENZYL     -0.1563 
      3 C2        -19.7009    5.8396   -1.2801 C.ar      1 BENZYL      0.1449 
      4 C4        -20.5296    5.1020   -2.1318 C.ar      1 BENZYL      0.0241 
      5 C4        -20.6745    5.5251   -3.4550 C.ar      1 BENZYL      0.0321 
      6 C5        -19.9796    6.6527   -3.8952 C.ar      1 BENZYL      0.1771 
      7 N7        -19.1827    7.3078   -3.0258 N.ar      1 BENZYL     -0.2841 
      8 N8        -19.0410    6.9113   -1.7609 N.ar      1 BENZYL     -0.3052 
      9 O9        -20.1950    3.1068    0.2718 O.2       1 BENZYL     -0.1441 
     10 O10       -20.1015    4.5432    2.3205 O.2       1 BENZYL     -0.1441 
     11 O11       -20.1184    7.0778   -5.2172 O.3       1 BENZYL     -0.2869 
     12 C2        -22.3358    6.3316    0.7455 C.ar      2 BENZYL     -0.0464 
     13 C3        -22.0375    4.9738    0.6067 C.ar      2 BENZYL      0.1030 
     14 C4        -23.0493    4.0780    0.2522 C.ar      2 BENZYL     -0.0464 
     15 C5        -24.3424    4.5444   -0.0027 C.ar      2 BENZYL     -0.0428 
     16 C6        -24.6422    5.9074    0.1115 C.ar      2 BENZYL      0.0353 
     17 C7        -23.6298    6.7965    0.4924 C.ar      2 BENZYL     -0.0428 
     18 C18       -19.3073    8.2070   -5.5776 C.3       1 BENZYL      0.0692 
     19 N19       -25.8950    6.3598   -0.1433 N.pl3     2 BENZYL     -0.3369 
     20 H1        -18.8201    6.0217    0.5900 H         1 BENZYL      0.2367 
     21 H2        -21.0533    4.2177   -1.7945 H         1 BENZYL      0.0878 
     22 H3        -21.3179    4.9873   -4.1428 H         1 BENZYL      0.0873 
     23 H4        -21.5598    7.0267    1.0490 H         2 BENZYL      0.0602 
     24 H5        -22.8306    3.0183    0.1721 H         2 BENZYL      0.0602 
     25 H6        -25.1129    3.8370   -0.2913 H         2 BENZYL      0.0515 
     26 H7        -23.8405    7.8561    0.5941 H         2 BENZYL      0.0515 
     27 H8        -19.4974    8.4441   -6.6346 H         1 BENZYL      0.0595 
     28 H9        -18.2379    7.9740   -5.4522 H         1 BENZYL      0.0595 
     29 H10       -19.5655    9.0848   -4.9641 H         1 BENZYL      0.0595 
     30 H11       -26.1181    7.3632   -0.0594 H         2 BENZYL      0.1719 
     31 H12       -26.6425    5.7074   -0.4235 H         2 BENZYL      0.1719 
@<TRIPOS>BOND
     1    2    3 1    
     2    3    4 ar   
     3    3    8 ar   
     4    8    7 ar   
     5    7    6 ar   
     6    6    5 ar   
     7    5    4 ar   
     8    2    1 1    
     9    1    9 2    
    10    1   10 2    
    11    1   13 1    
    12   12   13 ar   
    13   12   17 ar   
    14   17   16 ar   
    15   16   15 ar   
    16   15   14 ar   
    17   14   13 ar   
    18    6   11 1    
    19   11   18 1    
    20   16   19 1    
    21    2   20 1    
    22    4   21 1    
    23    5   22 1    
    24   12   23 1    
    25   14   24 1    
    26   15   25 1    
    27   17   26 1    
    28   18   27 1    
    29   18   28 1    
    30   18   29 1    
    31   19   30 1    
    32   19   31 1    
@<TRIPOS>SUBSTRUCTURE
     1 BENZYL      2 PERM              0 ****  ****    1 ROOT 
     2 BENZYL     12 PERM              0 ****  ****    1  
@<TRIPOS>NORMAL
@<TRIPOS>FF_PBC
FORCE_FIELD_SETUP_FEATURE Force Field Setup information
v1.0  0 0.000000 0.000000 0.000000 0.000000 0.000000 0.000000 NONE 0 0 0 0 1 0 0 0 0 0 0 0 0
@<TRIPOS>RENDERING_ATTRS
ANTIALIASED_LINES 
*
