#	Name:			PISM01213
#	Creating user name:	14062
#	Creation time:		Sun Apr 07 01:03:34 2019

#	Modifying user name:	14062
#	Modification time:	Sun Apr 07 01:05:38 2019

@<TRIPOS>MOLECULE
PISM01213
   53    52     1     1     0
SMALL
GAST_HUCK


@<TRIPOS>ATOM
      1 O1         -1.3811    8.4514    6.2783 O.3       1 <1>        -0.2927 
      2 C2         -2.2394    7.7056    5.5830 C.2       1 <1>         0.2312 
      3 C3         -3.4195    8.4435    5.0067 C.3       1 <1>         0.0485 
      4 C4         -4.3613    7.5122    4.1963 C.3       1 <1>        -0.0348 
      5 C5         -5.5684    8.2947    3.6105 C.3       1 <1>        -0.0509 
      6 C6         -6.5036    7.3619    2.7931 C.3       1 <1>        -0.0529 
      7 C7         -7.7098    8.1442    2.2046 C.3       1 <1>        -0.0528 
      8 C8         -8.6362    7.2156    1.3724 C.3       1 <1>        -0.0487 
      9 C9         -9.8415    7.9997    0.7837 C.3       1 <1>        -0.0118 
     10 C10       -10.7611    7.0859   -0.0705 C.3       1 <1>         0.1231 
     11 C11       -11.8906    7.8716   -0.7038 C.2       1 <1>         0.1325 
     12 C12       -12.7289    7.2745   -1.7632 C.2       1 <1>        -0.0146 
     13 C13       -13.7661    7.9160   -2.3189 C.2       1 <1>        -0.0298 
     14 C14       -14.6380    7.3355   -3.4097 C.3       1 <1>         0.1002 
     15 C15       -14.4202    8.1476   -4.7141 C.3       1 <1>         0.0038 
     16 C16       -15.3522    7.6705   -5.8050 C.2       1 <1>        -0.0934 
     17 C17       -14.9868    6.9586   -6.8815 C.2       1 <1>        -0.0986 
     18 C18       -13.5744    6.5025   -7.1670 C.3       1 <1>        -0.0393 
     19 C19       -13.5277    5.4581   -8.3122 C.3       1 <1>        -0.0586 
     20 O20       -12.1129    9.0190   -0.3494 O.2       1 <1>        -0.3937 
     21 O21        -2.0751    6.5061    5.4272 O.2       1 <1>        -0.3706 
     22 H1         -0.6637    7.9231    6.6109 H         1 <1>         0.2539 
     23 H2         -3.0359    9.2448    4.3564 H         1 <1>         0.0518 
     24 H3         -3.9740    8.9032    5.8393 H         1 <1>         0.0518 
     25 H4         -4.7294    6.7089    4.8560 H         1 <1>         0.0291 
     26 H5         -3.7893    7.0497    3.3747 H         1 <1>         0.0291 
     27 H6         -5.1968    9.1008    2.9564 H         1 <1>         0.0267 
     28 H7         -6.1402    8.7537    4.4339 H         1 <1>         0.0267 
     29 H8         -6.8761    6.5552    3.4459 H         1 <1>         0.0265 
     30 H9         -5.9308    6.9030    1.9704 H         1 <1>         0.0265 
     31 H10        -7.3364    8.9571    1.5602 H         1 <1>         0.0265 
     32 H11        -8.2889    8.5945    3.0276 H         1 <1>         0.0265 
     33 H12        -9.0083    6.4014    2.0157 H         1 <1>         0.0268 
     34 H13        -8.0557    6.7671    0.5495 H         1 <1>         0.0268 
     35 H14        -9.4686    8.8249    0.1547 H         1 <1>         0.0314 
     36 H15       -10.4351    8.4304    1.6066 H         1 <1>         0.0314 
     37 O37       -11.2763    6.0439    0.7829 O.3       1 <1>        -0.3740 
     38 H17       -10.1580    6.6431   -0.8816 H         1 <1>         0.0810 
     39 H18       -12.4679    6.2686   -2.0890 H         1 <1>         0.0462 
     40 H19       -14.0048    8.9234   -1.9744 H         1 <1>         0.0884 
     41 H20       -15.6892    7.4244   -3.0809 H         1 <1>         0.0845 
     42 O42       -14.3211    5.9462   -3.6177 O.3       1 <1>        -0.3724 
     43 H22       -13.3611    8.0721   -5.0006 H         1 <1>         0.0445 
     44 H23       -14.6334    9.2132   -4.5308 H         1 <1>         0.0445 
     45 H24       -16.4069    7.9324   -5.6948 H         1 <1>         0.0453 
     46 H25       -15.7646    6.6927   -7.6003 H         1 <1>         0.0450 
     47 H26       -13.1336    6.0446   -6.2667 H         1 <1>         0.0385 
     48 H27       -12.9693    7.3777   -7.4542 H         1 <1>         0.0385 
     49 H28       -13.9275    5.8906   -9.2429 H         1 <1>         0.0249 
     50 H29       -14.1277    4.5739   -8.0453 H         1 <1>         0.0249 
     51 H30       -12.4896    5.1371   -8.4936 H         1 <1>         0.0249 
     52 H16       -11.8413    5.4265    0.3297 H         1 <1>         0.2132 
     53 H21       -14.8700    5.5267   -4.2733 H         1 <1>         0.2146 
@<TRIPOS>BOND
     1    2    1 1    
     2    2    3 1    
     3    3    4 1    
     4    4    5 1    
     5    5    6 1    
     6    6    7 1    
     7    7    8 1    
     8    8    9 1    
     9    9   10 1    
    10   10   11 1    
    11   11   12 1    
    12   12   13 2    
    13   13   14 1    
    14   14   15 1    
    15   15   16 1    
    16   16   17 2    
    17   17   18 1    
    18   18   19 1    
    19   11   20 2    
    20    2   21 2    
    21    1   22 1    
    22    3   23 1    
    23    3   24 1    
    24    4   25 1    
    25    4   26 1    
    26    5   27 1    
    27    5   28 1    
    28    6   29 1    
    29    6   30 1    
    30    7   31 1    
    31    7   32 1    
    32    8   33 1    
    33    8   34 1    
    34    9   35 1    
    35    9   36 1    
    36   10   37 1    
    37   10   38 1    
    38   12   39 1    
    39   13   40 1    
    40   14   41 1    
    41   14   42 1    
    42   15   43 1    
    43   15   44 1    
    44   16   45 1    
    45   17   46 1    
    46   18   47 1    
    47   18   48 1    
    48   19   49 1    
    49   19   50 1    
    50   19   51 1    
    51   37   52 1    
    52   42   53 1    
@<TRIPOS>SUBSTRUCTURE
     1 ****        2 TEMP              0 ****  ****    0 ROOT 
@<TRIPOS>NORMAL
@<TRIPOS>FF_PBC
FORCE_FIELD_SETUP_FEATURE Force Field Setup information
v1.0  0 0.000000 0.000000 0.000000 0.000000 0.000000 0.000000 NONE 0 0 0 0 1 0 0 0 0 0 0 0 0
