#	Name:			PISM00992
#	Creating user name:	baoopengkun
#	Creation time:		Fri Jan 11 22:05:04 2019

#	Modifying user name:	baoopengkun
#	Modification time:	Fri Jan 11 22:35:24 2019

@<TRIPOS>MOLECULE
PISM00992
   41    43     1     1     0
SMALL
GAST_HUCK


@<TRIPOS>ATOM
      1 C1         12.8638    7.4513  -15.0040 C.2       1 <1>         0.2495 
      2 O2         11.7302    7.3596  -15.4502 O.2       1 <1>        -0.3657 
      3 C3         16.8268    3.0938   -1.8614 C.2       1 <1>         0.0412 
      4 C4         17.8264    3.7886   -2.4114 C.2       1 <1>         0.0412 
      5 O5         13.8215    8.1178  -15.6680 O.3       1 <1>        -0.2834 
      6 C6         13.3799    8.6922  -16.9141 C.3       1 <1>         0.0643 
      7 C7         15.7524    3.0679   -2.8626 C.2       1 <1>         0.2576 
      8 O8         14.6774    2.5197   -2.6890 O.2       1 <1>        -0.3492 
      9 N9         16.1555    3.7203   -3.9121 N.pl3     1 <1>        -0.1377 
     10 C10        17.3592    4.1820   -3.7472 C.2       1 <1>         0.2576 
     11 O11        18.0272    4.8271   -4.5370 O.2       1 <1>        -0.3492 
     12 C12        15.4172    3.8957   -5.0355 C.ar      1 <1>         0.0861 
     13 C13        14.7134    2.8237   -5.5966 C.ar      1 <1>        -0.0343 
     14 C14        13.9582    3.0012   -6.7596 C.ar      1 <1>        -0.0440 
     15 C15        13.9126    4.2514   -7.3827 C.ar      1 <1>         0.1029 
     16 C16        14.6056    5.3272   -6.8214 C.ar      1 <1>        -0.0440 
     17 C17        15.3497    5.1511   -5.6512 C.ar      1 <1>        -0.0343 
     18 S18        12.9774    4.4916   -8.8767 S.o2      1 <1>         0.0858 
     19 O19        12.5104    3.2059   -9.3557 O.2       1 <1>        -0.1457 
     20 O20        12.0271    5.5597   -8.6397 O.2       1 <1>        -0.1457 
     21 N21        14.1293    5.0436   -9.9308 N.am      1 <1>        -0.1843 
     22 C22        13.8092    5.6218  -11.1911 C.ar      1 <1>         0.0688 
     23 C23        12.5150    5.5358  -11.7179 C.ar      1 <1>        -0.0388 
     24 C24        12.2112    6.1253  -12.9488 C.ar      1 <1>        -0.0563 
     25 C25        13.1956    6.8030  -13.6762 C.ar      1 <1>         0.0438 
     26 C26        14.4934    6.8738  -13.1588 C.ar      1 <1>        -0.0563 
     27 C27        14.7964    6.2887  -11.9257 C.ar      1 <1>        -0.0388 
     28 H1         16.7973    2.6341   -0.8746 H         1 <1>         0.0816 
     29 H2         18.7957    4.0236   -1.9743 H         1 <1>         0.0816 
     30 H3         14.2362    9.2125  -17.3678 H         1 <1>         0.0575 
     31 H4         12.5730    9.4253  -16.7533 H         1 <1>         0.0575 
     32 H5         13.0353    7.9135  -17.6132 H         1 <1>         0.0575 
     33 H6         14.7545    1.8419   -5.1363 H         1 <1>         0.0539 
     34 H7         13.4079    2.1659   -7.1792 H         1 <1>         0.0607 
     35 H8         14.5616    6.3018   -7.2967 H         1 <1>         0.0607 
     36 H9         15.8704    6.0001   -5.2201 H         1 <1>         0.0539 
     37 H10        15.0895    4.9441   -9.6701 H         1 <1>         0.2193 
     38 H11        11.7315    5.0093  -11.1851 H         1 <1>         0.0498 
     39 H12        11.2008    6.0535  -13.3394 H         1 <1>         0.0627 
     40 H13        15.2733    7.3855  -13.7137 H         1 <1>         0.0627 
     41 H14        15.8081    6.3587  -11.5393 H         1 <1>         0.0498 
@<TRIPOS>BOND
     1   25    1 1    
     2    1    2 2    
     3    4    3 2    
     4    1    5 1    
     5    5    6 1    
     6    3   28 1    
     7    3    7 1    
     8    7    8 2    
     9    9    7 1    
    10   10    9 1    
    11   10   11 2    
    12    4   10 1    
    13    9   12 1    
    14   12   13 ar   
    15   13   14 ar   
    16   14   15 ar   
    17   16   15 ar   
    18   17   16 ar   
    19   12   17 ar   
    20   15   18 1    
    21   18   19 2    
    22   18   20 2    
    23   18   21 1    
    24   21   22 1    
    25   22   23 ar   
    26   23   24 ar   
    27   24   25 ar   
    28   26   25 ar   
    29   27   26 ar   
    30   22   27 ar   
    31    4   29 1    
    32    6   30 1    
    33    6   31 1    
    34    6   32 1    
    35   13   33 1    
    36   14   34 1    
    37   16   35 1    
    38   17   36 1    
    39   21   37 1    
    40   23   38 1    
    41   24   39 1    
    42   26   40 1    
    43   27   41 1    
@<TRIPOS>SUBSTRUCTURE
     1 ****        4 TEMP              0 ****  ****    0 ROOT 
@<TRIPOS>NORMAL
@<TRIPOS>FF_PBC
FORCE_FIELD_SETUP_FEATURE Force Field Setup information
v1.0  0 0.000000 0.000000 0.000000 0.000000 0.000000 0.000000 NONE 0 0 0 0 1 0 0 0 0 0 0 0 0
