#	Name:			PISM00611
#	Creating user name:	baoopengkun
#	Creation time:		Mon Dec 10 10:30:19 2018

#	Modifying user name:	baoopengkun
#	Modification time:	Mon Dec 10 10:30:35 2018

@<TRIPOS>MOLECULE
PISM00611
   44    47     1     2     0
SMALL
GAST_HUCK


@<TRIPOS>ATOM
      1 C1          3.5765    9.4942   -6.5915 C.ar      1 <1>        -0.0348 
      2 C2          2.6708    9.8958   -5.6053 C.ar      1 <1>        -0.0180 
      3 C3          2.2425    8.9849   -4.6357 C.ar      1 <1>         0.0714 
      4 C4          2.7271    7.6742   -4.6477 C.ar      1 <1>        -0.0180 
      5 C5          3.6305    7.2726   -5.6358 C.ar      1 <1>        -0.0348 
      6 C6          4.0462    8.1767   -6.6193 C.ar      1 <1>         0.0068 
      7 C7          5.0152    7.7162   -7.7177 C.3       1 <1>         0.1921 
      8 C8          6.4695    7.8515   -7.2014 C.3       1 <1>         0.1073 
      9 N9          7.5166    7.4214   -8.1189 N.pl3     1 <1>        -0.1814 
     10 N10         8.8542    7.4208   -7.8568 N.2       1 <1>        -0.1908 
     11 C11         9.5617    6.9899   -8.8338 C.2       1 <1>         0.0618 
     12 N12         8.5369    6.6953   -9.7965 N.2       1 <1>        -0.2870 
     13 C13         7.4030    6.9614   -9.3283 C.2       1 <1>         0.1270 
     14 O14         4.8172    8.4181   -8.9515 O.3       1 <1>        -0.3814 
     15 C15         3.6082    7.9094   -9.5230 C.3       1 <1>         0.0672 
     16 C16         3.6376    6.4249   -9.0768 C.3       1 <1>         0.1004 
     17 O17         4.7114    6.3752   -8.1215 O.3       1 <1>        -0.3757 
     18 C18         2.2858    5.9413   -8.4915 C.3       1 <1>         0.0978 
     19 O19         2.4085    4.5739   -8.0636 O.3       1 <1>        -0.3151 
     20 C20         1.2432    4.0504   -7.5067 C.ar      1 <1>         0.0921 
     21 C21         0.9639    4.2511   -6.1526 C.ar      1 <1>        -0.0323 
     22 C22        -0.2143    3.7406   -5.6001 C.ar      1 <1>        -0.0562 
     23 C23        -1.1086    3.0225   -6.3995 C.ar      1 <1>         0.0424 
     24 C24        -0.8227    2.8119   -7.7525 C.ar      1 <1>         0.0457 
     25 C25         0.3547    3.3248   -8.3039 C.ar      1 <1>        -0.0187 
     26 Cl26        1.1001    9.4854   -3.4057 Cl        1 <1>        -0.0420 
     27 H1          3.9156   10.2080   -7.3361 H         1 <1>         0.0849 
     28 H2          2.2988   10.9153   -5.5902 H         1 <1>         0.0703 
     29 H3          2.4005    6.9703   -3.8889 H         1 <1>         0.0703 
     30 H4          4.0086    6.2543   -5.6408 H         1 <1>         0.0849 
     31 H5          6.5770    7.2538   -6.2841 H         1 <1>         0.0595 
     32 H6          6.6580    8.9081   -6.9602 H         1 <1>         0.0595 
     33 H7         10.6421    6.8784   -8.9110 H         1 <1>         0.0863 
     34 H8          6.4850    6.8114   -9.8927 H         1 <1>         0.1361 
     35 H9          3.6014    8.0428  -10.6159 H         1 <1>         0.0576 
     36 H10         2.7514    8.4509   -9.0925 H         1 <1>         0.0576 
     37 H11         3.9248    5.7621   -9.9094 H         1 <1>         0.0635 
     38 H12         1.5100    6.0180   -9.2708 H         1 <1>         0.0640 
     39 H13         1.9939    6.5757   -7.6415 H         1 <1>         0.0640 
     40 H40         1.6641    4.8024   -5.5345 H         1 <1>         0.0545 
     41 H41        -0.4364    3.9006   -4.5499 H         1 <1>         0.0596 
     42 Cl42       -2.5843    2.3903   -5.6972 Cl        1 <1>        -0.0803 
     43 Cl43       -1.9323    1.9083   -8.7637 Cl        1 <1>        -0.0728 
     44 H44         0.5827    3.1621   -9.3514 H         1 <1>         0.0548 
@<TRIPOS>BOND
     1    2    1 ar   
     2    2    3 ar   
     3    3    4 ar   
     4    4    5 ar   
     5    5    6 ar   
     6    1    6 ar   
     7    6    7 1    
     8    7    8 1    
     9    8    9 1    
    10    9   10 1    
    11   10   11 2    
    12   11   12 1    
    13   12   13 2    
    14    9   13 1    
    15    7   14 1    
    16   14   15 1    
    17   15   16 1    
    18   16   17 1    
    19    7   17 1    
    20   16   18 1    
    21   18   19 1    
    22   19   20 1    
    23   20   21 ar   
    24   21   22 ar   
    25   22   23 ar   
    26   23   24 ar   
    27   24   25 ar   
    28   20   25 ar   
    29    3   26 1    
    30    1   27 1    
    31    2   28 1    
    32    4   29 1    
    33    5   30 1    
    34    8   31 1    
    35    8   32 1    
    36   11   33 1    
    37   13   34 1    
    38   15   35 1    
    39   15   36 1    
    40   16   37 1    
    41   18   38 1    
    42   18   39 1    
    43   21   40 1    
    44   22   41 1    
    45   23   42 1    
    46   24   43 1    
    47   25   44 1    
@<TRIPOS>SUBSTRUCTURE
     1 ****        2 TEMP              0 ****  ****    0 ROOT 
@<TRIPOS>NORMAL
@<TRIPOS>FF_PBC
FORCE_FIELD_SETUP_FEATURE Force Field Setup information
v1.0  0 0.000000 0.000000 0.000000 0.000000 0.000000 0.000000 NONE 0 0 0 0 1 0 0 0 0 0 0 0 0
@<TRIPOS>RENDERING_ATTRS
ANTIALIASED_LINES 
*
