#	Name:			PISM00156
#	Creating user name:	14062
#	Creation time:		Wed Jun 19 15:32:42 2019

#	Modifying user name:	14062
#	Modification time:	Wed Jun 19 15:34:14 2019

@<TRIPOS>MOLECULE
PISM00156
   19    19     1     2     0
SMALL
GAST_HUCK


@<TRIPOS>ATOM
      1 C1          9.3287   -6.0335   13.5023 C.3       1 BENZYL      0.1704 
      2 O2         10.4167   -6.1895   12.5708 O.3       1 BENZYL     -0.2950 
      3 C2         10.2159   -6.3453   11.1912 C.ar      1 BENZYL      0.1096 
      4 C3          8.9374   -6.3442   10.6166 C.ar      1 BENZYL     -0.0178 
      5 C4          8.7831   -6.5064    9.2364 C.ar      1 BENZYL      0.0459 
      6 C5          9.9042   -6.6694    8.4177 C.ar      1 BENZYL      0.0430 
      7 C6         11.1804   -6.6688    8.9850 C.ar      1 BENZYL     -0.0421 
      8 C7         11.3326   -6.5071   10.3645 C.ar      1 BENZYL      0.0689 
      9 Cl9         7.1753   -6.5043    8.5389 Cl        1 BENZYL     -0.0726 
     10 Cl10        9.7205   -6.8741    6.6871 Cl        1 BENZYL     -0.0803 
     11 Cl11       12.9400   -6.5077   11.0619 Cl        1 BENZYL     -0.0785 
     12 C12         9.8690   -5.8906   14.9011 C.2       1 BENZYL      0.2624 
     13 O13         9.6092   -6.6972   15.7804 O.2       1 BENZYL     -0.3676 
     14 O14        10.6413   -4.8262   15.1241 O.3       1 BENZYL     -0.2907 
     15 H1          8.6686   -6.9141   13.4757 H         1 BENZYL      0.0876 
     16 H2          8.7497   -5.1248   13.2806 H         1 BENZYL      0.0876 
     17 H3          8.0450   -6.2194   11.2165 H         1 BENZYL      0.0548 
     18 H4         12.0539   -6.7940    8.3540 H         1 BENZYL      0.0601 
     19 H5         10.9500   -4.8106   16.0234 H         1 BENZYL      0.2540 
@<TRIPOS>BOND
     1    2    3 1    
     2    3    4 ar   
     3    3    8 ar   
     4    8    7 ar   
     5    7    6 ar   
     6    6    5 ar   
     7    5    4 ar   
     8    2    1 1    
     9    5    9 1    
    10    6   10 1    
    11    8   11 1    
    12    1   12 1    
    13   12   13 2    
    14   12   14 1    
    15    1   15 1    
    16    1   16 1    
    17    4   17 1    
    18    7   18 1    
    19   14   19 1    
@<TRIPOS>SUBSTRUCTURE
     1 BENZYL      2 PERM              0 ****  ****    0 ROOT 
@<TRIPOS>NORMAL
@<TRIPOS>FF_PBC
FORCE_FIELD_SETUP_FEATURE Force Field Setup information
v1.0  0 0.000000 0.000000 0.000000 0.000000 0.000000 0.000000 NONE 0 0 0 0 1 0 0 0 0 0 0 0 0
@<TRIPOS>RENDERING_ATTRS
ANTIALIASED_LINES 
*
