#	Name:			PISM01012
#	Creating user name:	malab
#	Creation time:		Mon Jul 01 22:34:32 2019

#	Modifying user name:	malab
#	Modification time:	Mon Jul 01 22:34:47 2019

@<TRIPOS>MOLECULE
PISM01012
   25    26     1     1     0
SMALL
GAST_HUCK


@<TRIPOS>ATOM
      1 C1         16.7085   19.7782   32.5422 C.ar      1 <1>        -0.0520 
      2 C2         16.8505   18.5696   33.2301 C.ar      1 <1>        -0.0585 
      3 C3         16.7381   17.3578   32.5422 C.ar      1 <1>        -0.0322 
      4 C4         16.4844   17.3560   31.1673 C.ar      1 <1>         0.1273 
      5 C5         16.3523   18.5644   30.4760 C.ar      1 <1>         0.1460 
      6 C6         16.4581   19.7756   31.1669 C.ar      1 <1>         0.0532 
      7 Br7        16.2628   21.3791   30.2589 Br        1 <1>        -0.0553 
      8 O8         16.1203   18.5713   29.0996 O.3       1 <1>        -0.2580 
      9 C9         14.7701   18.2983   28.6938 C.3       1 <1>         0.2394 
     10 O10        14.7034   18.5062   27.2693 O.3       1 <1>        -0.2307 
     11 C11        13.9025   19.5514   27.1038 C.2       1 <1>         0.2495 
     12 O12        13.6629   20.0150   26.0022 O.2       1 <1>        -0.3691 
     13 C13        13.3216   20.0968   28.3247 C.2       1 <1>         0.0292 
     14 C14        12.3617   21.2471   28.4572 C.3       1 <1>        -0.0323 
     15 C15        13.8288   19.3237   29.2824 C.2       1 <1>        -0.0012 
     16 C16        16.3549   16.1081   30.4605 C.1       1 <1>         0.0922 
     17 N17        16.2405   15.1078   29.8900 N.1       1 <1>        -0.3387 
     18 H1         16.7928   20.7196   33.0764 H         1 <1>         0.0688 
     19 H2         17.0480   18.5721   34.2981 H         1 <1>         0.0558 
     20 H3         16.8475   16.4183   33.0761 H         1 <1>         0.0712 
     21 H4         14.4552   17.2688   28.9310 H         1 <1>         0.1207 
     22 H5         12.9285   22.1892   28.4938 H         1 <1>         0.0347 
     23 H6         11.7625   21.1509   29.3750 H         1 <1>         0.0347 
     24 H7         11.6848   21.2691   27.5900 H         1 <1>         0.0347 
     25 H8         13.6036   19.4229   30.3436 H         1 <1>         0.0706 
@<TRIPOS>BOND
     1    2    1 ar   
     2    2    3 ar   
     3    3    4 ar   
     4    4    5 ar   
     5    5    6 ar   
     6    1    6 ar   
     7    6    7 1    
     8    5    8 1    
     9    8    9 1    
    10    9   10 1    
    11   10   11 1    
    12   11   12 2    
    13   11   13 1    
    14   13   14 1    
    15   13   15 2    
    16    9   15 1    
    17    4   16 1    
    18   16   17 3    
    19    1   18 1    
    20    2   19 1    
    21    3   20 1    
    22    9   21 1    
    23   14   22 1    
    24   14   23 1    
    25   14   24 1    
    26   15   25 1    
@<TRIPOS>SUBSTRUCTURE
     1 ****        2 TEMP              0 ****  ****    0 ROOT 
@<TRIPOS>NORMAL
@<TRIPOS>FF_PBC
FORCE_FIELD_SETUP_FEATURE Force Field Setup information
v1.0  0 0.000000 0.000000 0.000000 0.000000 0.000000 0.000000 NONE 0 0 0 0 1 0 0 0 0 0 0 0 0
