#	Name:			PISM00866
#	Creating user name:	baoopengkun
#	Creation time:		Thu Dec 13 23:15:37 2018

#	Modifying user name:	baoopengkun
#	Modification time:	Thu Dec 13 23:30:01 2018

@<TRIPOS>MOLECULE
PISM00866
   25    26     1     1     0
SMALL
GAST_HUCK


@<TRIPOS>ATOM
      1 C1          0.7027    1.7348    1.7850 C.1       1 <1>         0.0922 
      2 C2         -1.2224    3.2391    1.4826 C.ar      1 <1>        -0.0322 
      3 C3         -2.1581    3.8609    0.6504 C.ar      1 <1>        -0.0585 
      4 C4         -2.1408    3.6151   -0.7257 C.ar      1 <1>        -0.0520 
      5 C5         -1.1899    2.7468   -1.2703 C.ar      1 <1>         0.0532 
      6 C6         -0.2526    2.1259   -0.4392 C.ar      1 <1>         0.1460 
      7 C7         -0.2696    2.3741    0.9365 C.ar      1 <1>         0.1273 
      8 Br8        -1.1708    2.4187   -3.0938 Br        1 <1>        -0.0553 
      9 O9          0.6937    1.2597   -0.9872 O.3       1 <1>        -0.2580 
     10 C10         1.9734    1.8725   -1.1925 C.3       1 <1>         0.2394 
     11 O11         1.8158    3.0485   -2.0115 O.3       1 <1>        -0.2307 
     12 C12         2.4287    2.7630   -3.1531 C.2       1 <1>         0.2495 
     13 C13         3.0777    1.4577   -3.2076 C.2       1 <1>         0.0292 
     14 C14         2.8091    0.9256   -2.0169 C.2       1 <1>        -0.0012 
     15 C15         3.8601    0.8529   -4.3410 C.3       1 <1>        -0.0323 
     16 O16         2.4502    3.5481   -4.0852 O.2       1 <1>        -0.3691 
     17 H1         -1.2356    3.4285    2.5518 H         1 <1>         0.0712 
     18 H2         -2.8980    4.5348    1.0726 H         1 <1>         0.0558 
     19 H3         -2.8662    4.0988   -1.3726 H         1 <1>         0.0688 
     20 H4          2.4806    2.1264   -0.2468 H         1 <1>         0.1207 
     21 H5          3.1363   -0.0582   -1.6829 H         1 <1>         0.0706 
     22 H6          3.5044   -0.1692   -4.5398 H         1 <1>         0.0347 
     23 H7          4.9270    0.8188   -4.0753 H         1 <1>         0.0347 
     24 H8          3.7376    1.4561   -5.2531 H         1 <1>         0.0347 
     25 N25         1.4921    1.2232    2.4593 N.1       1 <1>        -0.3387 
@<TRIPOS>BOND
     1    7    1 1    
     2    3    2 ar   
     3    4    3 ar   
     4    5    4 ar   
     5    6    5 ar   
     6    6    7 ar   
     7    2    7 ar   
     8    5    8 1    
     9    6    9 1    
    10    9   10 1    
    11   10   11 1    
    12   11   12 1    
    13   12   13 1    
    14   13   14 2    
    15   10   14 1    
    16   13   15 1    
    17   12   16 2    
    18    2   17 1    
    19    3   18 1    
    20    4   19 1    
    21   10   20 1    
    22   14   21 1    
    23   15   22 1    
    24   15   23 1    
    25   15   24 1    
    26    1   25 3    
@<TRIPOS>SUBSTRUCTURE
     1 ****        2 TEMP              0 ****  ****    0 ROOT 
@<TRIPOS>NORMAL
@<TRIPOS>FF_PBC
FORCE_FIELD_SETUP_FEATURE Force Field Setup information
v1.0  0 0.000000 0.000000 0.000000 0.000000 0.000000 0.000000 NONE 0 0 0 0 1 0 0 0 0 0 0 0 0
