#	Name:			PISM00889
#	Creating user name:	baoopengkun
#	Creation time:		Fri Dec 14 09:30:18 2018

#	Modifying user name:	baoopengkun
#	Modification time:	Fri Dec 14 09:46:06 2018

@<TRIPOS>MOLECULE
PISM00889
   31    33     1     1     0
SMALL
GAST_HUCK


@<TRIPOS>ATOM
      1 C1         13.1186   16.5456   -4.5278 C.ar      1 <1>        -0.0471 
      2 C2         14.0127   17.2070   -3.6781 C.ar      1 <1>         0.0330 
      3 C3         14.1321   16.7706   -2.3538 C.ar      1 <1>        -0.0471 
      4 C4         13.3674   15.6966   -1.8891 C.ar      1 <1>        -0.0701 
      5 C5         12.4686   15.0396   -2.7361 C.ar      1 <1>        -0.0314 
      6 C6         12.3534   15.4716   -4.0627 C.ar      1 <1>        -0.0701 
      7 C7         11.6562   13.8877   -2.1803 C.2       1 <1>         0.0614 
      8 N8         11.7617   13.4442   -0.8105 N.2       1 <1>        -0.2198 
      9 N9         10.8895   12.4240   -0.7540 N.2       1 <1>        -0.0879 
     10 N10        10.2943   12.2575   -1.9531 N.pl3     1 <1>        -0.1262 
     11 C11        10.7569   13.1239   -2.8103 C.2       1 <1>         0.0885 
     12 C12         9.3145   11.2245   -2.2375 C.3       1 <1>         0.2436 
     13 C13         7.9416   11.7818   -1.9524 C.2       1 <1>         0.0016 
     14 C14         7.2110   11.8120   -3.0654 C.2       1 <1>         0.0295 
     15 C15         8.1072   11.2648   -4.0780 C.2       1 <1>         0.2498 
     16 O16         9.3052   10.8950   -3.6421 O.3       1 <1>        -0.2284 
     17 O17         7.7846   11.1496   -5.2474 O.2       1 <1>        -0.3691 
     18 C18         5.8014   12.3053   -3.2459 C.3       1 <1>        -0.0323 
     19 N19        14.7501   18.2520   -4.1296 N.pl3     1 <1>        -0.3381 
     20 H20        14.6590   18.5770   -5.1036 H         1 <1>         0.1716 
     21 H21        15.4115   18.7366   -3.5048 H         1 <1>         0.1716 
     22 H1         13.0123   16.8637   -5.5599 H         1 <1>         0.0511 
     23 H2         14.8208   17.2638   -1.6755 H         1 <1>         0.0511 
     24 H3         13.4764   15.3735   -0.8585 H         1 <1>         0.0556 
     25 H4         11.6723   14.9842   -4.7497 H         1 <1>         0.0556 
     26 H5         10.4502   13.1959   -3.8519 H         1 <1>         0.1041 
     27 H6          9.5208   10.3254   -1.6350 H         1 <1>         0.1242 
     28 H7          7.6052   12.1175   -0.9721 H         1 <1>         0.0709 
     29 H8          5.6491   12.6361   -4.2843 H         1 <1>         0.0347 
     30 H9          5.6007   13.1504   -2.5704 H         1 <1>         0.0347 
     31 H10         5.0976   11.4899   -3.0230 H         1 <1>         0.0347 
@<TRIPOS>BOND
     1    2    1 ar   
     2    2    3 ar   
     3    3    4 ar   
     4    4    5 ar   
     5    5    6 ar   
     6    1    6 ar   
     7    5    7 1    
     8    7    8 1    
     9    8    9 2    
    10    9   10 1    
    11   10   11 1    
    12    7   11 2    
    13   10   12 1    
    14   12   13 1    
    15   13   14 2    
    16   14   15 1    
    17   15   16 1    
    18   12   16 1    
    19   15   17 2    
    20   14   18 1    
    21    2   19 1    
    22   19   20 1    
    23   19   21 1    
    24    1   22 1    
    25    3   23 1    
    26    4   24 1    
    27    6   25 1    
    28   11   26 1    
    29   12   27 1    
    30   13   28 1    
    31   18   29 1    
    32   18   30 1    
    33   18   31 1    
@<TRIPOS>SUBSTRUCTURE
     1 ****        2 TEMP              0 ****  ****    0 ROOT 
@<TRIPOS>NORMAL
@<TRIPOS>FF_PBC
FORCE_FIELD_SETUP_FEATURE Force Field Setup information
v1.0  0 0.000000 0.000000 0.000000 0.000000 0.000000 0.000000 NONE 0 0 0 0 1 0 0 0 0 0 0 0 0
