#	Name:			PISM00431
#	Creating user name:	malab
#	Creation time:		Wed Apr 10 23:37:58 2019

#	Modifying user name:	malab
#	Modification time:	Wed Apr 10 23:43:13 2019

@<TRIPOS>MOLECULE
PISM00431
  103   106     1     2     1
SMALL
USER_CHARGES


@<TRIPOS>ATOM
      1 C1          0.8420   -6.4498   13.4165 C.3       1 <1>         0.0000 
      2 C2          1.8362   -6.3943   14.6116 C.3       1 <1>         0.0000 
      3 C3          1.8988   -4.9835   15.1288 C.2       1 <1>         0.0000 
      4 C4          0.5841   -4.3120   15.4321 C.ar      1 <1>         0.0000 
      5 C5         -0.5978   -4.8760   14.9158 C.ar      1 <1>         0.0000 
      6 C6         -0.5931   -6.0243   13.8863 C.3       1 <1>         0.0000 
      7 C7          0.5279   -3.0844   16.2644 C.ar      1 <1>         0.0000 
      8 C8         -0.7081   -2.5427   16.6444 C.ar      1 <1>         0.0000 
      9 C9         -1.9519   -3.2705   16.2765 C.ar      1 <1>         0.0000 
     10 C10        -1.8972   -4.3672   15.4126 C.ar      1 <1>         0.0000 
     11 O11         2.9634   -4.4135   15.3098 O.2       1 <1>         0.0000 
     12 O12        -0.7416   -1.3259   17.3382 O.3       1 <1>         0.0000 
     13 C13        -1.8798   -0.4596   17.1626 C.3       1 <1>         0.0000 
     14 C14        -2.1697   -0.1377   15.6664 C.3       1 <1>         0.0000 
     15 C15        -3.5237    0.5887   15.4549 C.3       1 <1>         0.0000 
     16 O16        -3.8211    0.4983   14.0469 O.3       1 <1>         0.0000 
     17 C17        -5.0188    0.9806   13.6841 C.2       1 <1>         0.0000 
     18 N18        -5.2860    0.7149   12.3838 N.am      1 <1>         0.0000 
     19 O19        -5.7647    1.5727   14.4517 O.2       1 <1>         0.0000 
     20 C20        -6.5498    1.1181   11.7723 C.3       1 <1>         0.0000 
     21 C21        -6.3074    1.5803   10.3109 C.3       1 <1>         0.0000 
     22 C22        -7.5839    2.2080    9.6901 C.3       1 <1>         0.0000 
     23 C23        -7.3158    2.7260    8.2509 C.3       1 <1>         0.0000 
     24 C24        -8.5420    3.4976    7.6956 C.3       1 <1>         0.0000 
     25 N25        -8.2805    4.0315    6.3636 N.am      1 <1>         0.0000 
     26 C26        -9.1858    4.8502    5.7822 C.2       1 <1>         0.0000 
     27 C27        -8.8795    5.3616    4.3946 C.3       1 <1>         0.0000 
     28 O28       -10.2217    5.1851    6.3371 O.2       1 <1>         0.0000 
     29 C29       -10.0769    6.1455    3.7990 C.3       1 <1>         0.0000 
     30 C30        -9.7820    6.6189    2.3525 C.3       1 <1>         0.0000 
     31 C31       -11.0240    7.3380    1.7658 C.3       1 <1>         0.0000 
     32 C32       -10.7582    7.8409    0.3254 C.3       1 <1>         0.0000 
     33 S33       -10.5181    6.4629   -0.8748 S.3       1 <1>         0.0000 
     34 C34       -11.5806    7.1002   -2.2328 C.3       1 <1>         0.0000 
     35 C35       -11.6951    8.5755   -1.8054 C.3       1 <1>         0.0000 
     36 C36       -11.9987    8.5126   -0.2949 C.3       1 <1>         0.0000 
     37 N37       -12.4436    9.8753   -0.0767 N.am      1 <1>         0.0000 
     38 C38       -13.0022   10.3681   -1.1970 C.2       1 <1>         0.0000 
     39 N39       -12.7133    9.5281   -2.2089 N.am      1 <1>         0.0000 
     40 O40       -13.6560   11.3955   -1.2806 O.2       1 <1>         0.0000 
     41 C41         0.8117   -7.8979   12.8409 C.3       1 <1>         0.0000 
     42 C42         1.3754   -5.5052   12.2907 C.3       1 <1>         0.0000 
     43 C43        -5.2600   -8.1954   13.7593 C.2       1 <1>         0.0000 
     44 O44        -4.8960   -7.0668   13.4646 O.2       1 <1>         0.0000 
     45 O45        -1.2833   -5.5615   12.7055 O.3       1 <1>         0.0000 
     46 C46        -1.3346   -7.1657   14.5557 C.2       1 <1>         0.0000 
     47 O47        -6.4847   -8.6154   13.4227 O.3       1 <1>         0.0000 
     48 C48        -2.2657   -9.9675   15.4726 C.3       1 <1>         0.0000 
     49 H1          2.8449   -6.7348   14.3241 H         1 <1>         0.0000 
     50 H2          1.4783   -7.0354   15.4317 H         1 <1>         0.0000 
     51 H3          1.4493   -2.5888   16.5569 H         1 <1>         0.0000 
     52 H4         -2.9150   -2.9685   16.6673 H         1 <1>         0.0000 
     53 H5         -2.8179   -4.8687   15.1316 H         1 <1>         0.0000 
     54 H6         -1.6587    0.4833   17.6829 H         1 <1>         0.0000 
     55 H7         -2.7526   -0.9042   17.6614 H         1 <1>         0.0000 
     56 H8         -2.2302   -1.0653   15.0824 H         1 <1>         0.0000 
     57 H9         -1.3489    0.4643   15.2416 H         1 <1>         0.0000 
     58 H10        -3.4620    1.6329   15.8029 H         1 <1>         0.0000 
     59 H11        -4.3114    0.0628   16.0195 H         1 <1>         0.0000 
     60 H12        -4.6389    0.1938   11.8198 H         1 <1>         0.0000 
     61 H13        -7.0137    1.9464   12.3315 H         1 <1>         0.0000 
     62 H14        -7.2461    0.2645   11.7833 H         1 <1>         0.0000 
     63 H15        -5.9746    0.7252    9.7004 H         1 <1>         0.0000 
     64 H16        -5.5016    2.3313   10.3201 H         1 <1>         0.0000 
     65 H17        -7.9073    3.0538   10.3184 H         1 <1>         0.0000 
     66 H18        -8.3967    1.4626    9.6714 H         1 <1>         0.0000 
     67 H19        -7.0812    1.8766    7.5881 H         1 <1>         0.0000 
     68 H20        -6.4503    3.4089    8.2579 H         1 <1>         0.0000 
     69 H21        -8.7782    4.3321    8.3765 H         1 <1>         0.0000 
     70 H22        -9.4147    2.8257    7.6519 H         1 <1>         0.0000 
     71 H23        -7.4396    3.7669    5.8847 H         1 <1>         0.0000 
     72 H24        -8.6497    4.4990    3.7489 H         1 <1>         0.0000 
     73 H25        -7.9881    6.0104    4.4430 H         1 <1>         0.0000 
     74 H26       -10.2928    7.0193    4.4354 H         1 <1>         0.0000 
     75 H27       -10.9629    5.4897    3.7937 H         1 <1>         0.0000 
     76 H28        -9.5283    5.7464    1.7298 H         1 <1>         0.0000 
     77 H29        -8.9189    7.3042    2.3556 H         1 <1>         0.0000 
     78 H30       -11.2860    8.2037    2.3953 H         1 <1>         0.0000 
     79 H31       -11.8779    6.6413    1.7596 H         1 <1>         0.0000 
     80 H32        -9.8960    8.5268    0.2932 H         1 <1>         0.0000 
     81 H33       -12.5606    6.6011   -2.2210 H         1 <1>         0.0000 
     82 H34       -11.1076    6.9733   -3.2179 H         1 <1>         0.0000 
     83 C83        -2.3088   -7.8689   13.9657 C.2       1 <1>         0.0000 
     84 H35       -10.7223    9.0692   -1.9845 H         1 <1>         0.0000 
     85 H36       -12.8812    7.8731   -0.1142 H         1 <1>         0.0000 
     86 H37       -12.4487   10.2955    0.8315 H         1 <1>         0.0000 
     87 H38       -13.0244    9.6082   -3.1562 H         1 <1>         0.0000 
     88 H39         1.7968   -8.1700   12.4299 H         1 <1>         0.0000 
     89 H40         0.0645   -7.9627   12.0344 H         1 <1>         0.0000 
     90 H41         0.5574   -8.6373   13.6151 H         1 <1>         0.0000 
     91 H42         1.3498   -4.4484   12.5954 H         1 <1>         0.0000 
     92 H43         0.7823   -5.6038   11.3689 H         1 <1>         0.0000 
     93 H44         2.4164   -5.7623   12.0379 H         1 <1>         0.0000 
     94 H45        -2.1519   -5.2134   12.8641 H         1 <1>         0.0000 
     95 H46        -1.0606   -7.4246   15.5783 H         1 <1>         0.0000 
     96 H47        -6.9895   -7.9695   12.9385 H         1 <1>         0.0000 
     97 H48        -1.1843   -9.8911   15.2889 H         1 <1>         0.0000 
     98 C98        -3.0339   -8.9706   14.6342 C.2       1 <1>         0.0000 
     99 H49        -2.5694  -10.9950   15.2285 H         1 <1>         0.0000 
    100 H50        -2.4607   -9.7858   16.5393 H         1 <1>         0.0000 
    101 H51        -2.6018   -7.6363   12.9414 H         1 <1>         0.0000 
    102 H52        -4.8606   -9.9492   14.9798 H         1 <1>         0.0000 
    103 C104       -4.3634   -9.1061   14.5001 C.2       1 <1>         0.0000 
@<TRIPOS>BOND
     1    2    1 1    
     2    2    3 1    
     3    3    4 1    
     4    4    5 2    
     5    5    6 1    
     6    1    6 1    
     7    4    7 1    
     8    7    8 2    
     9    8    9 1    
    10    9   10 2    
    11    5   10 1    
    12    3   11 2    
    13    8   12 1    
    14   12   13 1    
    15   13   14 1    
    16   14   15 1    
    17   15   16 1    
    18   16   17 1    
    19   17   18 am   
    20   17   19 2    
    21   18   20 1    
    22   20   21 1    
    23   21   22 1    
    24   22   23 1    
    25   23   24 1    
    26   24   25 1    
    27   25   26 am   
    28   26   27 1    
    29   26   28 2    
    30   27   29 1    
    31   29   30 1    
    32   30   31 1    
    33   31   32 1    
    34   32   33 1    
    35   33   34 1    
    36   34   35 1    
    37   35   36 1    
    38   32   36 1    
    39   36   37 1    
    40   37   38 am   
    41   38   39 am   
    42   35   39 1    
    43   38   40 2    
    44    1   41 1    
    45    1   42 1    
    46  103   43 1    
    47   43   44 2    
    48    6   45 1    
    49    6   46 1    
    50   43   47 1    
    51   98   48 1    
    52    2   49 1    
    53    2   50 1    
    54    7   51 1    
    55    9   52 1    
    56   10   53 1    
    57   13   54 1    
    58   13   55 1    
    59   14   56 1    
    60   14   57 1    
    61   15   58 1    
    62   15   59 1    
    63   18   60 1    
    64   20   61 1    
    65   20   62 1    
    66   21   63 1    
    67   21   64 1    
    68   22   65 1    
    69   22   66 1    
    70   23   67 1    
    71   23   68 1    
    72   24   69 1    
    73   24   70 1    
    74   25   71 1    
    75   27   72 1    
    76   27   73 1    
    77   29   74 1    
    78   29   75 1    
    79   30   76 1    
    80   30   77 1    
    81   31   78 1    
    82   31   79 1    
    83   32   80 1    
    84   34   81 1    
    85   34   82 1    
    86   46   83 2    
    87   35   84 1    
    88   36   85 1    
    89   37   86 1    
    90   39   87 1    
    91   41   88 1    
    92   41   89 1    
    93   41   90 1    
    94   42   91 1    
    95   42   92 1    
    96   42   93 1    
    97   45   94 1    
    98   46   95 1    
    99   47   96 1    
   100   48   97 1    
   101   83   98 1    
   102   48   99 1    
   103   48  100 1    
   104   83  101 1    
   105  103  102 1    
   106   98  103 2    
@<TRIPOS>SUBSTRUCTURE
     1 ****        2 TEMP              0 ****  ****    0 ROOT 
@<TRIPOS>SET
ATOM$REDORANGE  STATIC     ATOMS    COLORGROUP SYSTEM 
103 1 2 3 4 5 6 7 8 9 10 11 12 13 14 15 16 17 18 19 \
 20 21 22 23 24 25 26 27 28 29 30 31 32 33 34 35 36 37 \
 38 39 40 41 42 43 44 45 46 47 48 49 50 51 52 53 54 55 \
 56 57 58 59 60 61 62 63 64 65 66 67 68 69 70 71 72 73 \
 74 75 76 77 78 79 80 81 82 83 84 85 86 87 88 89 90 91 \
 92 93 94 95 96 97 98 99 100 101 102 103
@<TRIPOS>NORMAL
@<TRIPOS>FF_PBC
FORCE_FIELD_SETUP_FEATURE Force Field Setup information
v1.0  0 0.000000 0.000000 0.000000 0.000000 0.000000 0.000000 NONE 0 0 0 0 0 0 0 0 0 0 0 0 0
@<TRIPOS>RENDERING_ATTRS
ANTIALIASED_LINES 
*
