#	Name:			PISM01055
#	Creating user name:	malab
#	Creation time:		Tue Jul 02 22:45:36 2019

#	Modifying user name:	malab
#	Modification time:	Tue Jul 02 22:53:49 2019

@<TRIPOS>MOLECULE
PISM01055
   46    49     1     1     0
SMALL
GAST_HUCK


@<TRIPOS>ATOM
      1 C1         -9.2269   17.9908    1.8792 C.3       1 <1>        -0.0893 
      2 C2         -9.5543   18.2364    0.3705 C.3       1 <1>        -0.0998 
      3 C3         -8.5197   17.5921   -0.5899 C.3       1 <1>        -0.0414 
      4 C4         -7.1231   18.2231   -0.3593 C.3       1 <1>         0.0280 
      5 C5         -6.8449   18.3306    1.1159 C.2       1 <1>         0.0168 
      6 C6         -7.7473   18.2502    2.0901 C.2       1 <1>        -0.0395 
      7 C7         -9.5119   16.5140    2.2832 C.3       1 <1>        -0.1161 
      8 C8        -10.1364   18.9270    2.7270 C.3       1 <1>        -0.1161 
      9 C9         -7.1538   18.4112    3.4653 C.3       1 <1>         0.1188 
     10 C10        -5.6789   18.8129    3.1120 C.3       1 <1>         0.0512 
     11 C11        -5.4445   18.5383    1.5989 C.3       1 <1>         0.0410 
     12 O12        -7.7755   19.4823    4.2080 O.3       1 <1>        -0.2683 
     13 C13        -6.9916   20.5362    4.0700 C.2       1 <1>         0.2378 
     14 C14        -5.7127   20.2772    3.4344 C.2       1 <1>         0.0594 
     15 O15        -7.3070   21.6432    4.4713 O.2       1 <1>        -0.3778 
     16 C16        -4.7420   21.1630    3.1911 C.2       1 <1>         0.0792 
     17 O17        -3.6032   20.7484    2.6186 O.3       1 <1>        -0.2722 
     18 C18        -2.6749   21.8141    2.3592 C.3       1 <1>         0.2383 
     19 O19        -3.2833   22.7663    1.4632 O.3       1 <1>        -0.2305 
     20 C20        -2.6011   22.6651    0.3296 C.2       1 <1>         0.2495 
     21 O21        -2.8926   23.3175   -0.6577 O.2       1 <1>        -0.3691 
     22 C22        -1.4817   21.7303    0.3519 C.2       1 <1>         0.0293 
     23 C23        -1.5204   21.2282    1.5844 C.2       1 <1>        -0.0010 
     24 C24        -0.5078   21.4174   -0.7511 C.3       1 <1>        -0.0323 
     25 H1        -10.5607   17.8531    0.1357 H         1 <1>         0.0074 
     26 H2         -9.5560   19.3204    0.1685 H         1 <1>         0.0074 
     27 H3         -8.8248   17.7536   -1.6378 H         1 <1>         0.0303 
     28 H4         -8.4745   16.5052   -0.4243 H         1 <1>         0.0303 
     29 H5         -7.0946   19.2421   -0.7773 H         1 <1>         0.0681 
     30 H6         -6.3528   17.6159   -0.8615 H         1 <1>         0.0681 
     31 H7        -10.5468   16.2382    2.0296 H         1 <1>         0.0034 
     32 H8         -9.3831   16.3753    3.3671 H         1 <1>         0.0034 
     33 H9         -8.8308   15.8134    1.7796 H         1 <1>         0.0034 
     34 H10       -11.1907   18.7956    2.4386 H         1 <1>         0.0034 
     35 H11        -9.8601   19.9803    2.5644 H         1 <1>         0.0034 
     36 H12       -10.0592   18.7060    3.8017 H         1 <1>         0.0034 
     37 H13        -7.2248   17.4565    4.0091 H         1 <1>         0.0798 
     38 H14        -4.9346   18.3262    3.7635 H         1 <1>         0.0491 
     39 H39        -4.8753   17.6080    1.4461 H         1 <1>         0.0701 
     40 H16        -4.9518   19.3636    1.0631 H         1 <1>         0.0701 
     41 H17        -4.9300   22.2012    3.4782 H         1 <1>         0.1070 
     42 H18        -2.3215   22.3064    3.2814 H         1 <1>         0.1210 
     43 H19        -0.8239   20.4898    1.9797 H         1 <1>         0.0706 
     44 H20        -0.5931   22.1619   -1.5569 H         1 <1>         0.0347 
     45 H21        -0.7257   20.4201   -1.1611 H         1 <1>         0.0347 
     46 H22         0.5211   21.4309   -0.3613 H         1 <1>         0.0347 
@<TRIPOS>BOND
     1    2    1 1    
     2    2    3 1    
     3    3    4 1    
     4    4    5 1    
     5    5    6 2    
     6    1    6 1    
     7    1    7 1    
     8    1    8 1    
     9    6    9 1    
    10    9   10 1    
    11   10   11 1    
    12    5   11 1    
    13    9   12 1    
    14   12   13 1    
    15   13   14 1    
    16   10   14 1    
    17   13   15 2    
    18   14   16 2    
    19   16   17 1    
    20   17   18 1    
    21   18   19 1    
    22   19   20 1    
    23   20   21 2    
    24   20   22 1    
    25   22   23 2    
    26   18   23 1    
    27   22   24 1    
    28    2   25 1    
    29    2   26 1    
    30    3   27 1    
    31    3   28 1    
    32    4   29 1    
    33    4   30 1    
    34    7   31 1    
    35    7   32 1    
    36    7   33 1    
    37    8   34 1    
    38    8   35 1    
    39    8   36 1    
    40    9   37 1    
    41   10   38 1    
    42   11   39 1    
    43   11   40 1    
    44   16   41 1    
    45   18   42 1    
    46   23   43 1    
    47   24   44 1    
    48   24   45 1    
    49   24   46 1    
@<TRIPOS>SUBSTRUCTURE
     1 ****        2 TEMP              0 ****  ****    0 ROOT 
@<TRIPOS>NORMAL
@<TRIPOS>FF_PBC
FORCE_FIELD_SETUP_FEATURE Force Field Setup information
v1.0  0 0.000000 0.000000 0.000000 0.000000 0.000000 0.000000 NONE 0 0 0 0 1 0 0 0 0 0 0 0 0
