#	Name:			PISM00840.1
#	Creating user name:	baoopengkun
#	Creation time:		Thu Dec 13 14:40:19 2018

#	Modifying user name:	baoopengkun
#	Modification time:	Thu Dec 13 14:47:55 2018

@<TRIPOS>MOLECULE
PISM00840.1
   24    25     1     1     0
SMALL
GAST_HUCK


@<TRIPOS>ATOM
      1 C1         -8.1595   15.6825   -5.5349 C.ar      1 <1>        -0.0298 
      2 C2         -9.3480   15.2667   -4.9277 C.ar      1 <1>        -0.0597 
      3 C3        -10.2056   16.2097   -4.3534 C.ar      1 <1>        -0.0020 
      4 C4         -9.8664   17.5659   -4.3734 C.ar      1 <1>        -0.0597 
      5 C5         -8.6752   17.9803   -4.9766 C.ar      1 <1>        -0.0298 
      6 C6         -7.8309   17.0399   -5.5735 C.ar      1 <1>         0.1007 
      7 I7        -11.9618   15.6033   -3.4807 I         1 <1>        -0.0588 
      8 O8         -6.6603   17.4502   -6.2090 O.3       1 <1>        -0.2691 
      9 C9         -6.8684   18.0353   -7.5027 C.3       1 <1>         0.2362 
     10 C10        -7.4766   17.0258   -8.4487 C.2       1 <1>        -0.0019 
     11 C11        -6.6277   16.7378   -9.4331 C.2       1 <1>         0.0292 
     12 C12        -5.4710   17.5767   -9.1423 C.2       1 <1>         0.2495 
     13 O13        -5.5775   18.3437   -8.0643 O.3       1 <1>        -0.2313 
     14 C14        -6.8174   15.7895  -10.5852 C.3       1 <1>        -0.0323 
     15 O15        -4.4738   17.5824   -9.8433 O.2       1 <1>        -0.3691 
     16 H1         -7.4884   14.9550   -5.9797 H         1 <1>         0.0549 
     17 H2         -9.6048   14.2126   -4.9023 H         1 <1>         0.0617 
     18 H3        -10.5279   18.2971   -3.9198 H         1 <1>         0.0617 
     19 H4         -8.4038   19.0307   -4.9808 H         1 <1>         0.0549 
     20 H5         -7.4733   18.9554   -7.4505 H         1 <1>         0.1200 
     21 H6         -8.4695   16.5915   -8.3377 H         1 <1>         0.0705 
     22 H7         -6.2221   16.1241  -11.4481 H         1 <1>         0.0347 
     23 H8         -7.8770   15.7468  -10.8788 H         1 <1>         0.0347 
     24 H9         -6.4841   14.7841  -10.2884 H         1 <1>         0.0347 
@<TRIPOS>BOND
     1    2    1 ar   
     2    2    3 ar   
     3    3    4 ar   
     4    4    5 ar   
     5    5    6 ar   
     6    1    6 ar   
     7    3    7 1    
     8    6    8 1    
     9    8    9 1    
    10    9   10 1    
    11   10   11 2    
    12   11   12 1    
    13   12   13 1    
    14    9   13 1    
    15   11   14 1    
    16   12   15 2    
    17    1   16 1    
    18    2   17 1    
    19    4   18 1    
    20    5   19 1    
    21    9   20 1    
    22   10   21 1    
    23   14   22 1    
    24   14   23 1    
    25   14   24 1    
@<TRIPOS>SUBSTRUCTURE
     1 ****        2 TEMP              0 ****  ****    0 ROOT 
@<TRIPOS>NORMAL
@<TRIPOS>FF_PBC
FORCE_FIELD_SETUP_FEATURE Force Field Setup information
v1.0  0 0.000000 0.000000 0.000000 0.000000 0.000000 0.000000 NONE 0 0 0 0 1 0 0 0 0 0 0 0 0
