#	Name:			PISM00365
#	Creating user name:	malab
#	Creation time:		Tue Apr 02 20:32:38 2019

#	Modifying user name:	malab
#	Modification time:	Tue Apr 02 20:37:10 2019

@<TRIPOS>MOLECULE
PISM00365
   53    55     1     1     0
SMALL
GAST_HUCK


@<TRIPOS>ATOM
      1 N1          6.4802   -1.0565   -7.3276 N.2       1 <1>        -0.1730 
      2 C2          7.0666   -1.3152   -8.4359 C.2       1 <1>         0.0653 
      3 N3          6.1845   -0.6450   -9.3441 N.2       1 <1>        -0.2827 
      4 C4          5.2395   -0.1010   -8.7235 C.2       1 <1>         0.1489 
      5 N5          5.3402   -0.3120   -7.4398 N.pl3     1 <1>        -0.1236 
      6 C6          4.5517    0.0978   -6.4734 C.2       1 <1>         0.1347 
      7 C7          4.9598   -0.3720   -5.0807 C.3       1 <1>         0.1322 
      8 O8          6.3721   -0.1981   -4.8601 O.3       1 <1>        -0.3716 
      9 N9         -0.4284    1.7367   -1.5656 N.2       1 <1>        -0.0916 
     10 N10        -1.1505    2.4000   -0.6476 N.2       1 <1>        -0.2260 
     11 C11         3.4693    0.8697   -6.6826 C.2       1 <1>        -0.0370 
     12 C12         3.0413    2.3823   -4.7000 C.ar      1 <1>        -0.0693 
     13 C13         2.2361    2.8147   -3.6406 C.ar      1 <1>        -0.0312 
     14 C14         0.9753    2.2449   -3.4457 C.ar      1 <1>         0.1107 
     15 C15         0.5004    1.2865   -4.3458 C.ar      1 <1>        -0.0312 
     16 C16         1.2842    0.8916   -5.4326 C.ar      1 <1>        -0.0693 
     17 N17         0.1993    2.5969   -2.3943 N.pl3     1 <1>        -0.1418 
     18 C18         2.5808    1.3933   -5.5758 C.ar      1 <1>        -0.0552 
     19 C19         4.4630   -1.8148   -4.7098 C.3       1 <1>         0.0043 
     20 C20         5.0422   -2.9203   -5.6425 C.3       1 <1>        -0.0552 
     21 C21         4.8835   -2.1367   -3.2436 C.3       1 <1>        -0.0552 
     22 C22         2.9096   -1.8806   -4.7973 C.3       1 <1>        -0.0552 
     23 C23        -0.9257    3.7766   -1.0087 C.2       1 <1>         0.0408 
     24 C24        -0.0982    3.8217   -2.0579 C.2       1 <1>         0.0827 
     25 C25        -1.5790    4.9186   -0.2780 C.3       1 <1>         0.0000 
     26 C26        -3.0938    4.6067   -0.1574 C.3       1 <1>         0.0554 
     27 C27        -3.8665    5.7095    0.5135 C.2       1 <1>         0.2327 
     28 O28        -3.3320    6.7298    0.9175 O.2       1 <1>        -0.3705 
     29 O29        -5.1770    5.4972    0.6358 O.3       1 <1>        -0.2926 
     30 H1          7.9765   -1.8813   -8.6320 H         1 <1>         0.0879 
     31 H2          4.4897    0.4485   -9.2877 H         1 <1>         0.1387 
     32 H3          4.5268    0.2944   -4.3239 H         1 <1>         0.0846 
     33 H4          3.1325    1.1909   -7.6641 H         1 <1>         0.0306 
     34 H5          4.0267    2.8147   -4.8424 H         1 <1>         0.0534 
     35 H6          2.5971    3.5848   -2.9668 H         1 <1>         0.0577 
     36 H7         -0.4833    0.8523   -4.1998 H         1 <1>         0.0577 
     37 H8          0.8866    0.1906   -6.1596 H         1 <1>         0.0534 
     38 H9          4.6679   -3.9106   -5.3412 H         1 <1>         0.0238 
     39 H39         6.9005   -0.6796   -5.4884 H         1 <1>         0.2141 
     40 H10         6.1398   -2.9549   -5.5892 H         1 <1>         0.0238 
     41 H11         4.7373   -2.7585   -6.6866 H         1 <1>         0.0238 
     42 H12         4.4592   -1.4024   -2.5418 H         1 <1>         0.0238 
     43 H13         5.9790   -2.1186   -3.1421 H         1 <1>         0.0238 
     44 H14         4.5287   -3.1346   -2.9434 H         1 <1>         0.0238 
     45 H15         2.5714   -1.6874   -5.8257 H         1 <1>         0.0238 
     46 H16         2.4519   -1.1423   -4.1228 H         1 <1>         0.0238 
     47 H17         2.5399   -2.8751   -4.5045 H         1 <1>         0.0238 
     48 H18         0.2450    4.7332   -2.5469 H         1 <1>         0.0901 
     49 H19        -1.4263    5.8642   -0.8226 H         1 <1>         0.0408 
     50 H20        -1.1320    5.0101    0.7243 H         1 <1>         0.0408 
     51 H21        -3.2401    3.6848    0.4276 H         1 <1>         0.0535 
     52 H22        -3.5206    4.4535   -1.1609 H         1 <1>         0.0535 
     53 H23        -5.6037    6.2301    1.0659 H         1 <1>         0.2539 
@<TRIPOS>BOND
     1    2    1 2    
     2    2    3 1    
     3    3    4 2    
     4    4    5 1    
     5    1    5 1    
     6    5    6 1    
     7    6    7 1    
     8    7    8 1    
     9   17    9 1    
    10    9   10 2    
    11   10   23 1    
    12    6   11 2    
    13   18   12 ar   
    14   12   13 ar   
    15   13   14 ar   
    16   15   14 ar   
    17   16   15 ar   
    18   18   16 ar   
    19   11   18 1    
    20   14   17 1    
    21    7   19 1    
    22   19   20 1    
    23   19   21 1    
    24   19   22 1    
    25   24   23 2    
    26   17   24 1    
    27   23   25 1    
    28   25   26 1    
    29   26   27 1    
    30   27   28 2    
    31   27   29 1    
    32    2   30 1    
    33    4   31 1    
    34    7   32 1    
    35   11   33 1    
    36   12   34 1    
    37   13   35 1    
    38   15   36 1    
    39   16   37 1    
    40    8   39 1    
    41   20   38 1    
    42   20   40 1    
    43   20   41 1    
    44   21   42 1    
    45   21   43 1    
    46   21   44 1    
    47   22   45 1    
    48   22   46 1    
    49   22   47 1    
    50   24   48 1    
    51   25   49 1    
    52   25   50 1    
    53   26   51 1    
    54   26   52 1    
    55   29   53 1    
@<TRIPOS>SUBSTRUCTURE
     1 ****        2 TEMP              0 ****  ****    0 ROOT 
@<TRIPOS>NORMAL
@<TRIPOS>FF_PBC
FORCE_FIELD_SETUP_FEATURE Force Field Setup information
v1.0  0 0.000000 0.000000 0.000000 0.000000 0.000000 0.000000 NONE 0 0 0 0 1 0 0 0 0 0 0 0 0
