#	Name:			PISM01068
#	Creating user name:	Qinrunwen
#	Creation time:		Sun Mar 31 14:50:06 2019

#	Modifying user name:	Qinrunwen
#	Modification time:	Sun Mar 31 14:56:00 2019

@<TRIPOS>MOLECULE
PISM01068
   15    14     1     1     0
SMALL
GAST_HUCK


@<TRIPOS>ATOM
      1 C1         19.5982  -11.6655  -16.6378 C.3       1 <1>        -0.0393 
      2 C2         18.7680  -12.4905  -17.6539 C.3       1 <1>         0.0737 
      3 O3         18.9110  -12.0095  -19.0025 O.3       1 <1>        -0.2389 
      4 S4         18.2774  -10.6938  -19.3840 S.o2      1 <1>         0.0792 
      5 C5         19.7412   -9.6705  -19.6063 C.3       1 <1>         0.0817 
      6 O6         17.4943  -10.1537  -18.2888 O.2       1 <1>        -0.1475 
      7 H1         20.6508  -11.6332  -16.9587 H         1 <1>         0.0252 
      8 O8         17.6520  -10.8589  -20.6804 O.2       1 <1>        -0.1475 
      9 H2         19.5475  -12.1349  -15.6428 H         1 <1>         0.0252 
     10 H3         19.2232  -10.6358  -16.5508 H         1 <1>         0.0252 
     11 H4         17.7054  -12.5314  -17.3630 H         1 <1>         0.0581 
     12 H5         19.1555  -13.5218  -17.6581 H         1 <1>         0.0581 
     13 H6         20.3869  -10.1221  -20.3733 H         1 <1>         0.0489 
     14 H7         20.2969   -9.5891  -18.6619 H         1 <1>         0.0489 
     15 H8         19.4305   -8.6678  -19.9336 H         1 <1>         0.0489 
@<TRIPOS>BOND
     1    2    1 1    
     2    2    3 1    
     3    3    4 1    
     4    4    5 1    
     5    4    6 2    
     6    1    7 1    
     7    4    8 2    
     8    1    9 1    
     9    1   10 1    
    10    2   11 1    
    11    2   12 1    
    12    5   13 1    
    13    5   14 1    
    14    5   15 1    
@<TRIPOS>SUBSTRUCTURE
     1 ****        2 TEMP              0 ****  ****    0 ROOT 
@<TRIPOS>NORMAL
@<TRIPOS>FF_PBC
FORCE_FIELD_SETUP_FEATURE Force Field Setup information
v1.0  0 0.000000 0.000000 0.000000 0.000000 0.000000 0.000000 NONE 0 0 0 0 1 0 0 0 0 0 0 0 0
