#	Name:			PISM01099
#	Creating user name:	Qinrunwen
#	Creation time:		Mon Apr 01 14:19:19 2019

#	Modifying user name:	Qinrunwen
#	Modification time:	Mon Apr 01 14:23:23 2019

@<TRIPOS>MOLECULE
PISM01099
   51    54     1     1     0
SMALL
GAST_HUCK


@<TRIPOS>ATOM
      1 C1          8.3342   39.9382   -2.8529 C.ar      1 <1>        -0.0351 
      2 C2          9.0141   39.6688   -4.0440 C.ar      1 <1>        -0.0625 
      3 C3         10.4100   39.6054   -4.0579 C.ar      1 <1>        -0.0308 
      4 C4         11.1346   39.8665   -2.8911 C.ar      1 <1>         0.0967 
      5 C5         10.4589   40.2476   -1.7291 C.ar      1 <1>        -0.0308 
      6 C6          9.0612   40.2902   -1.7105 C.ar      1 <1>        -0.0625 
      7 O7         12.5238   39.7314   -2.8758 O.3       1 <1>        -0.2945 
      8 C8         13.2753   40.7070   -3.6248 C.3       1 <1>         0.1708 
      9 C9         14.7543   40.4179   -3.5684 C.2       1 <1>         0.2625 
     10 O10        15.4862   40.9796   -4.5323 O.3       1 <1>        -0.2906 
     11 O11        15.2610   39.7286   -2.6972 O.2       1 <1>        -0.3675 
     12 C12         6.8244   39.8293   -2.8352 C.2       1 <1>        -0.0334 
     13 C13         6.1802   39.0997   -1.9155 C.2       1 <1>         0.1266 
     14 S14         6.9788   38.1986   -0.6287 S.3       1 <1>         0.0475 
     15 C15         5.3767   37.5496   -0.1490 C.2       1 <1>         0.2361 
     16 C16         4.7366   38.8869   -1.8189 C.2       1 <1>         0.2740 
     17 N17         4.4105   38.0496   -0.8748 N.pl3     1 <1>        -0.1280 
     18 O18         3.9549   39.4479   -2.5689 O.2       1 <1>        -0.3582 
     19 C19         3.1178   37.7009   -0.6585 C.ar      1 <1>         0.0983 
     20 C20         2.3359   37.2007   -1.7062 C.ar      1 <1>        -0.0323 
     21 C21         1.0099   36.8198   -1.4790 C.ar      1 <1>        -0.0695 
     22 C22         0.4581   36.9328   -0.1999 C.ar      1 <1>        -0.0718 
     23 C23         1.2317   37.4399    0.8484 C.ar      1 <1>        -0.0695 
     24 C24         2.5538   37.8295    0.6160 C.ar      1 <1>        -0.0323 
     25 N25         5.1287   36.7111    0.7793 N.2       1 <1>        -0.2870 
     26 C26         6.0733   36.0301    1.6438 C.2       1 <1>        -0.0205 
     27 C27         5.5171   35.2994    2.6167 C.2       1 <1>        -0.0910 
     28 C28         6.3085   34.5791    3.6264 C.2       1 <1>        -0.1054 
     29 C29         7.6311   34.4462    3.4966 C.2       1 <1>        -0.0984 
     30 C30         8.3518   34.9959    2.2954 C.3       1 <1>        -0.0240 
     31 C31         7.5789   36.1151    1.5366 C.3       1 <1>        -0.0081 
     32 H1          8.4555   39.4950   -4.9599 H         1 <1>         0.0596 
     33 H2         10.9287   39.3420   -4.9730 H         1 <1>         0.0550 
     34 H3         11.0261   40.5063   -0.8412 H         1 <1>         0.0550 
     35 H4          8.5449   40.6017   -0.8079 H         1 <1>         0.0596 
     36 H5         13.1136   41.7123   -3.2078 H         1 <1>         0.0877 
     37 H6         12.9753   40.7031   -4.6831 H         1 <1>         0.0877 
     38 H7         16.4068   40.7597   -4.4351 H         1 <1>         0.2540 
     39 H8          6.2540   40.3384   -3.6112 H         1 <1>         0.0590 
     40 H9          2.7591   37.1013   -2.7005 H         1 <1>         0.0554 
     41 H10         0.4077   36.4352   -2.2963 H         1 <1>         0.0591 
     42 H11        -0.5683   36.6268   -0.0209 H         1 <1>         0.0532 
     43 H12         0.8047   37.5309    1.8427 H         1 <1>         0.0591 
     44 H13         3.1435   38.2367    1.4319 H         1 <1>         0.0554 
     45 H14         4.4301   35.2438    2.6835 H         1 <1>         0.0260 
     46 H15         5.7968   34.1499    4.4893 H         1 <1>         0.0376 
     47 H16         8.1992   33.9114    4.2605 H         1 <1>         0.0475 
     48 H17         8.5091   34.1282    1.6331 H         1 <1>         0.0432 
     49 H18         9.3423   35.3753    2.5979 H         1 <1>         0.0432 
     50 H19         7.8942   36.0357    0.4862 H         1 <1>         0.0468 
     51 H20         7.8630   37.1032    1.9312 H         1 <1>         0.0468 
@<TRIPOS>BOND
     1    2    1 ar   
     2    2    3 ar   
     3    3    4 ar   
     4    4    5 ar   
     5    5    6 ar   
     6    1    6 ar   
     7    4    7 1    
     8    7    8 1    
     9    8    9 1    
    10    9   10 1    
    11    9   11 2    
    12    1   12 1    
    13   12   13 2    
    14   13   14 1    
    15   14   15 1    
    16   13   16 1    
    17   16   17 1    
    18   15   17 1    
    19   16   18 2    
    20   17   19 1    
    21   19   20 ar   
    22   20   21 ar   
    23   21   22 ar   
    24   22   23 ar   
    25   23   24 ar   
    26   19   24 ar   
    27   15   25 2    
    28   25   26 1    
    29   26   27 2    
    30   27   28 1    
    31   28   29 2    
    32   29   30 1    
    33   30   31 1    
    34   26   31 1    
    35    2   32 1    
    36    3   33 1    
    37    5   34 1    
    38    6   35 1    
    39    8   36 1    
    40    8   37 1    
    41   10   38 1    
    42   12   39 1    
    43   20   40 1    
    44   21   41 1    
    45   22   42 1    
    46   23   43 1    
    47   24   44 1    
    48   27   45 1    
    49   28   46 1    
    50   29   47 1    
    51   30   48 1    
    52   30   49 1    
    53   31   50 1    
    54   31   51 1    
@<TRIPOS>SUBSTRUCTURE
     1 ****        2 TEMP              0 ****  ****    0 ROOT 
@<TRIPOS>NORMAL
@<TRIPOS>FF_PBC
FORCE_FIELD_SETUP_FEATURE Force Field Setup information
v1.0  0 0.000000 0.000000 0.000000 0.000000 0.000000 0.000000 NONE 0 0 0 0 1 0 0 0 0 0 0 0 0
