#	Name:			PISM00722
#	Creating user name:	baoopengkun
#	Creation time:		Sun Jan 20 21:58:07 2019

#	Modifying user name:	baoopengkun
#	Modification time:	Sun Jan 20 21:58:47 2019

@<TRIPOS>MOLECULE
PISM00722
   89    93     1     1     0
SMALL
GAST_HUCK


@<TRIPOS>ATOM
      1 C1         -2.9620    3.5828   -3.9183 C.3       1 <1>        -0.0163 
      2 C2         -3.7239    2.2466   -4.1502 C.3       1 <1>         0.0819 
      3 C3         -3.4053    1.2174   -3.0286 C.3       1 <1>         0.0835 
      4 C4         -3.6897    1.8139   -1.6255 C.3       1 <1>        -0.0028 
      5 C5         -2.8680    3.1221   -1.4448 C.3       1 <1>         0.0681 
      6 C6         -3.2071    4.2212   -2.5123 C.3       1 <1>        -0.0055 
      7 C7         -2.3101    5.5041   -2.2724 C.3       1 <1>        -0.0276 
      8 C8         -0.8616    5.1723   -1.7864 C.3       1 <1>        -0.0063 
      9 C9         -0.8523    4.7589   -0.2726 C.3       1 <1>         0.0801 
     10 O10        -2.1200    4.6047    0.4100 O.3       1 <1>        -0.2763 
     11 C11        -3.0066    3.7125   -0.0652 C.2       1 <1>         0.2374 
     12 O12        -3.9536    3.3982    0.6356 O.2       1 <1>        -0.3701 
     13 C13        -2.2613    6.5262   -3.4506 C.3       1 <1>        -0.0487 
     14 C14        -1.6179    7.8861   -3.0155 C.3       1 <1>        -0.0468 
     15 C15        -0.3551    7.7542   -2.0892 C.3       1 <1>        -0.0257 
     16 C16         0.1514    6.2912   -2.2108 C.3       1 <1>        -0.0298 
     17 C17         1.5801    6.2781   -1.6176 C.3       1 <1>        -0.0491 
     18 C18         2.1070    7.7053   -1.9430 C.3       1 <1>        -0.0491 
     19 C19         0.9299    8.5228   -2.5715 C.3       1 <1>        -0.0304 
     20 O20        -3.3072    1.7268   -5.4285 O.3       1 <1>        -0.3892 
     21 O21        -2.0162    0.8408   -3.0821 O.3       1 <1>        -0.3891 
     22 C22         5.1914   11.6723   -1.4316 C.3       1 <1>        -0.0360 
     23 C23        -4.7087    4.6606   -2.3880 C.3       1 <1>        -0.0568 
     24 C24        -0.6940    8.1443   -0.6145 C.3       1 <1>        -0.0590 
     25 C25         1.0593   10.0696   -2.3098 C.3       1 <1>        -0.0120 
     26 C26         2.4241   10.6454   -2.8328 C.3       1 <1>         0.0841 
     27 C27         2.7627   12.0944   -2.3404 C.3       1 <1>         0.0841 
     28 C28         4.2893   12.4202   -2.4920 C.3       1 <1>        -0.0125 
     29 C29         7.3308   10.3187   -1.1070 C.3       1 <1>        -0.0528 
     30 C30         5.7781   12.5008   -0.2351 C.3       1 <1>        -0.0499 
     31 C31         6.3194   10.8631   -2.1445 C.3       1 <1>        -0.0499 
     32 C32        -0.1284   10.8693   -2.9165 C.3       1 <1>        -0.0597 
     33 O33         2.4865   10.7006   -4.2734 O.3       1 <1>        -0.3890 
     34 O34         1.9838   13.0418   -3.0945 O.3       1 <1>        -0.3890 
     35 C35         4.5261   13.9580   -2.5706 C.3       1 <1>        -0.0597 
     36 C36         7.2858   12.8098   -0.4285 C.3       1 <1>        -0.0528 
     37 C37         8.1178   11.4945   -0.4608 C.3       1 <1>        -0.0530 
     38 H1         -3.2744    4.2748   -4.7154 H         1 <1>         0.0298 
     39 H2         -1.8900    3.3772   -4.0559 H         1 <1>         0.0298 
     40 H3         -4.8108    2.4274   -4.1953 H         1 <1>         0.0619 
     41 H4         -4.0272    0.3138   -3.1673 H         1 <1>         0.0621 
     42 H5         -3.3712    1.0774   -0.8680 H         1 <1>         0.0319 
     43 H6         -4.7668    1.9676   -1.4750 H         1 <1>         0.0319 
     44 H7         -1.8402    2.7502   -1.5370 H         1 <1>         0.0560 
     45 H8         -2.7828    6.0781   -1.4630 H         1 <1>         0.0311 
     46 H9         -0.4904    4.3074   -2.3592 H         1 <1>         0.0332 
     47 H10        -0.4069    5.5505    0.3393 H         1 <1>         0.0616 
     48 H11        -0.2318    3.8620   -0.1069 H         1 <1>         0.0616 
     49 H12        -3.2654    6.7549   -3.8373 H         1 <1>         0.0268 
     50 H13        -1.7031    6.0873   -4.2920 H         1 <1>         0.0268 
     51 H14        -2.3955    8.4624   -2.4883 H         1 <1>         0.0271 
     52 H15        -1.3793    8.4391   -3.9378 H         1 <1>         0.0271 
     53 H16         0.3475    6.1429   -3.2909 H         1 <1>         0.0310 
     54 H17         2.1988    5.4823   -2.0670 H         1 <1>         0.0268 
     55 H18         1.5949    6.1193   -0.5306 H         1 <1>         0.0268 
     56 H19         2.9613    7.6390   -2.6378 H         1 <1>         0.0268 
     57 H20         2.4618    8.1815   -1.0133 H         1 <1>         0.0268 
     58 H21         0.9788    8.3816   -3.6622 H         1 <1>         0.0310 
     59 H22        -3.7521    0.9215   -5.6767 H         1 <1>         0.2099 
     60 H23        -1.7692    0.4922   -3.9337 H         1 <1>         0.2099 
     61 H24         4.5613   10.9214   -0.9276 H         1 <1>         0.0304 
     62 H25        -4.9699    5.4110   -3.1444 H         1 <1>         0.0237 
     63 H26        -4.9099    5.0996   -1.3993 H         1 <1>         0.0237 
     64 H27        -5.4307    3.8488   -2.5163 H         1 <1>         0.0237 
     65 H28        -1.0090    9.1945   -0.5522 H         1 <1>         0.0235 
     66 H29         0.1680    8.0203    0.0553 H         1 <1>         0.0235 
     67 H30        -1.5262    7.5538   -0.2133 H         1 <1>         0.0235 
     68 H31         1.0502   10.2229   -1.2188 H         1 <1>         0.0327 
     69 H32         3.2334    9.9893   -2.4913 H         1 <1>         0.0622 
     70 H33         2.4912   12.2311   -1.2810 H         1 <1>         0.0622 
     71 H34         4.5588   12.0531   -3.4978 H         1 <1>         0.0326 
     72 H35         8.0354    9.6135   -1.5798 H         1 <1>         0.0265 
     73 H36         6.7696    9.7571   -0.3409 H         1 <1>         0.0265 
     74 H37         5.7252   11.9221    0.7038 H         1 <1>         0.0268 
     75 H38         5.2131   13.4226   -0.0451 H         1 <1>         0.0268 
     76 H39         5.8790   10.0245   -2.7111 H         1 <1>         0.0268 
     77 H40         6.8647   11.4982   -2.8607 H         1 <1>         0.0268 
     78 H41        -0.1152   10.7981   -4.0140 H         1 <1>         0.0233 
     79 H42        -0.0820   11.9290   -2.6315 H         1 <1>         0.0233 
     80 H43        -1.0958   10.5020   -2.5567 H         1 <1>         0.0233 
     81 H44         2.4326    9.8551   -4.7053 H         1 <1>         0.2099 
     82 H45         2.1108   12.9164   -4.0305 H         1 <1>         0.2099 
     83 H46         4.0832   14.3798   -3.4865 H         1 <1>         0.0233 
     84 H47         5.5977   14.1933   -2.5984 H         1 <1>         0.0233 
     85 H48         4.0613   14.4781   -1.7211 H         1 <1>         0.0233 
     86 H49         7.6573   13.4540    0.3857 H         1 <1>         0.0265 
     87 H50         7.4251   13.3668   -1.3667 H         1 <1>         0.0265 
     88 H51         8.4108   11.1945    0.5595 H         1 <1>         0.0265 
     89 H52         9.0431   11.6874   -1.0299 H         1 <1>         0.0265 
@<TRIPOS>BOND
     1    1    2 1    
     2    2    3 1    
     3    4    3 1    
     4    5    4 1    
     5    6    5 1    
     6    6    1 1    
     7    7    6 1    
     8    8    7 1    
     9    8    9 1    
    10    9   10 1    
    11   10   11 1    
    12   11   12 2    
    13   11    5 1    
    14   13    7 1    
    15   14   13 1    
    16   15   14 1    
    17   15   16 1    
    18   16    8 1    
    19   16   17 1    
    20   18   17 1    
    21   19   18 1    
    22   19   15 1    
    23    2   20 1    
    24    3   21 1    
    25   22   28 1    
    26    6   23 1    
    27   15   24 1    
    28   25   19 1    
    29   26   25 1    
    30   27   26 1    
    31   28   27 1    
    32   31   29 1    
    33   22   30 1    
    34   22   31 1    
    35   25   32 1    
    36   26   33 1    
    37   27   34 1    
    38   28   35 1    
    39   30   36 1    
    40   36   37 1    
    41   29   37 1    
    42    1   38 1    
    43    1   39 1    
    44    2   40 1    
    45    3   41 1    
    46    4   42 1    
    47    4   43 1    
    48    5   44 1    
    49    7   45 1    
    50    8   46 1    
    51    9   47 1    
    52    9   48 1    
    53   13   49 1    
    54   13   50 1    
    55   14   51 1    
    56   14   52 1    
    57   16   53 1    
    58   17   54 1    
    59   17   55 1    
    60   18   56 1    
    61   18   57 1    
    62   19   58 1    
    63   20   59 1    
    64   21   60 1    
    65   22   61 1    
    66   23   62 1    
    67   23   63 1    
    68   23   64 1    
    69   24   65 1    
    70   24   66 1    
    71   24   67 1    
    72   25   68 1    
    73   26   69 1    
    74   27   70 1    
    75   28   71 1    
    76   29   72 1    
    77   29   73 1    
    78   30   74 1    
    79   30   75 1    
    80   31   76 1    
    81   31   77 1    
    82   32   78 1    
    83   32   79 1    
    84   32   80 1    
    85   33   81 1    
    86   34   82 1    
    87   35   83 1    
    88   35   84 1    
    89   35   85 1    
    90   36   86 1    
    91   36   87 1    
    92   37   88 1    
    93   37   89 1    
@<TRIPOS>SUBSTRUCTURE
     1 ****        2 TEMP              0 ****  ****    0 ROOT 
@<TRIPOS>NORMAL
@<TRIPOS>FF_PBC
FORCE_FIELD_SETUP_FEATURE Force Field Setup information
v1.0  0 0.000000 0.000000 0.000000 0.000000 0.000000 0.000000 NONE 0 0 0 0 1 0 0 0 0 0 0 0 0
