#	Name:			PISM01059
#	Creating user name:	malab
#	Creation time:		Thu Jul 04 18:27:40 2019

#	Modifying user name:	malab
#	Modification time:	Thu Jul 04 18:40:35 2019

@<TRIPOS>MOLECULE
PISM01059
   48    49     1     1     0
SMALL
GAST_HUCK


@<TRIPOS>ATOM
      1 C1         -3.6232   -1.8824   30.0099 C.3       1 <1>        -0.2179 
      2 C2         -3.1982   -2.7394   28.7773 C.3       1 <1>        -0.1348 
      3 C3         -2.2268   -1.9984   27.8270 C.3       1 <1>         0.0479 
      4 C4         -2.9280   -0.7154   27.3291 C.3       1 <1>         0.0299 
      5 C5         -3.5883    0.0863   28.4275 C.2       1 <1>        -0.0391 
      6 C6         -3.8986   -0.4390   29.6252 C.2       1 <1>        -0.1652 
      7 C7         -4.8992   -2.5329   30.6294 C.3       1 <1>        -0.1767 
      8 C8         -2.5087   -1.8609   31.1013 C.3       1 <1>        -0.1767 
      9 H9         -4.3640    1.5687   27.0814 H         1 <1>         0.0550 
     10 C10        -4.5241    0.3992   30.6623 C.2       1 <1>        -0.0986 
     11 C11        -3.7872    1.2562   31.3773 C.2       1 <1>        -0.0443 
     12 C12        -4.3260    2.0946   32.4671 C.2       1 <1>         0.0981 
     13 C13        -3.8807    1.5284   28.0690 C.3       1 <1>        -0.0050 
     14 H1         -4.0943   -2.9848   28.1832 H         1 <1>        -0.0058 
     15 C15        -3.7952    3.3060   32.6866 C.2       1 <1>         0.2050 
     16 C16        -5.4334    1.5686   33.2960 C.2       1 <1>        -0.0299 
     17 O17        -2.7981    3.7451   31.8996 O.3       1 <1>        -0.1673 
     18 C18        -2.2953    5.0443   32.2569 C.3       1 <1>         0.2755 
     19 O19        -3.3881    5.9828   32.3077 O.3       1 <1>        -0.2239 
     20 C20        -3.1594    6.8391   31.3199 C.2       1 <1>         0.2501 
     21 O21        -3.9273    7.7528   31.0762 O.2       1 <1>        -0.3690 
     22 C22        -1.9346    6.6108   30.5609 C.2       1 <1>         0.0298 
     23 C23        -1.4090    5.5308   31.1360 C.2       1 <1>         0.0064 
     24 C24        -1.3896    7.4109   29.4094 C.3       1 <1>        -0.0323 
     25 H2         -2.7519   -3.6929   29.1024 H         1 <1>        -0.0058 
     26 H3         -2.0083   -2.6448   26.9564 H         1 <1>         0.0610 
     27 O27        -0.9699   -1.6505   28.4326 O.3       1 <1>        -0.3904 
     28 H5         -3.7165   -0.9812   26.6076 H         1 <1>         0.0610 
     29 H6         -2.1723   -0.1062   26.8095 H         1 <1>         0.0610 
     30 H7         -4.7192   -3.5990   30.8380 H         1 <1>        -0.0121 
     31 H8         -5.7472   -2.4533   29.9315 H         1 <1>        -0.0121 
     32 H9         -5.1922   -2.0541   31.5761 H         1 <1>        -0.0121 
     33 H10        -2.8732   -1.3890   32.0268 H         1 <1>        -0.0121 
     34 H11        -1.6309   -1.2883   30.7720 H         1 <1>        -0.0121 
     35 H12        -2.1870   -2.8831   31.3524 H         1 <1>        -0.0121 
     36 H4         -5.9730    2.1880   34.0118 H         1 <1>         0.1074 
     37 H14        -5.5954    0.2814   30.8162 H         1 <1>         0.0544 
     38 H15        -2.7258    1.3270   31.1338 H         1 <1>         0.0528 
     39 H16        -2.9311    2.0813   28.0202 H         1 <1>         0.0550 
     40 H17        -4.5428    2.0437   28.7785 H         1 <1>         0.0550 
     41 H13        -5.7368    0.5244   33.2147 H         1 <1>         0.1074 
     42 H24        -0.5398   -2.4105   28.8109 H         1 <1>         0.2101 
     43 H18        -4.2041    3.9033   33.5060 H         1 <1>         0.2277 
     44 H19        -1.7437    5.0342   33.2128 H         1 <1>         0.1296 
     45 H20        -0.4738    5.0588   30.8362 H         1 <1>         0.0712 
     46 H21        -0.3273    7.6411   29.5800 H         1 <1>         0.0347 
     47 H22        -1.9456    8.3546   29.3034 H         1 <1>         0.0347 
     48 H23        -1.4887    6.8314   28.4796 H         1 <1>         0.0347 
@<TRIPOS>BOND
     1    2    1 1    
     2    2    3 1    
     3    3    4 1    
     4    4    5 1    
     5    5    6 2    
     6    1    6 1    
     7    1    7 1    
     8    1    8 1    
     9   13    9 1    
    10    6   10 1    
    11   10   11 2    
    12   11   12 1    
    13    5   13 1    
    14    2   14 1    
    15   12   15 2    
    16   12   16 1    
    17   15   17 1    
    18   17   18 1    
    19   18   19 1    
    20   19   20 1    
    21   20   21 2    
    22   20   22 1    
    23   22   23 2    
    24   18   23 1    
    25   22   24 1    
    26    2   25 1    
    27    3   26 1    
    28    3   27 1    
    29    4   28 1    
    30    4   29 1    
    31    7   30 1    
    32    7   31 1    
    33    7   32 1    
    34    8   33 1    
    35    8   34 1    
    36    8   35 1    
    37   16   36 1    
    38   10   37 1    
    39   11   38 1    
    40   13   39 1    
    41   13   40 1    
    42   16   41 1    
    43   27   42 1    
    44   15   43 1    
    45   18   44 1    
    46   23   45 1    
    47   24   46 1    
    48   24   47 1    
    49   24   48 1    
@<TRIPOS>SUBSTRUCTURE
     1 ****        2 TEMP              0 ****  ****    0 ROOT 
@<TRIPOS>NORMAL
@<TRIPOS>FF_PBC
FORCE_FIELD_SETUP_FEATURE Force Field Setup information
v1.0  0 0.000000 0.000000 0.000000 0.000000 0.000000 0.000000 NONE 0 0 0 0 1 0 0 0 0 0 0 0 0
