#	Name:			PISM00501
#	Creating user name:	malab
#	Creation time:		Thu Apr 04 11:26:36 2019

#	Modifying user name:	malab
#	Modification time:	Thu Apr 04 11:27:38 2019

@<TRIPOS>MOLECULE
PISM00501
   21    19     1     1     0
SMALL
GAST_HUCK


@<TRIPOS>ATOM
      1 Cl1        -1.0865   -5.0768   -2.1995 Cl        1 <1>        -0.1199 
      2 C2         -1.3416   -3.3325   -2.0568 C.3       1 <1>         0.0627 
      3 C3         -2.3332   -3.0508   -0.8922 C.3       1 <1>        -0.0171 
      4 N4         -2.6936   -1.6221   -0.6045 N.4       1 <1>         0.2377 
      5 C5         -3.3240   -0.9678   -1.7919 C.3       1 <1>        -0.0418 
      6 C6         -1.4848   -0.8368   -0.2088 C.3       1 <1>        -0.0418 
      7 C7         -3.6929   -1.6178    0.5111 C.3       1 <1>        -0.0418 
      8 Cl8        -2.1309   -0.1350    2.7337 Cl        0 <0>        -1.0000 
      9 H1         -1.7306   -2.9916   -3.0275 H         1 <1>         0.0482 
     10 H2         -0.3528   -2.8826   -1.8846 H         1 <1>         0.0482 
     11 H3         -1.8872   -3.5098    0.0072 H         1 <1>         0.0826 
     12 H4         -3.2443   -3.6279   -1.1244 H         1 <1>         0.0826 
     13 H5         -3.7043    0.0355   -1.5391 H         1 <1>         0.0778 
     14 H6         -4.1740   -1.5557   -2.1735 H         1 <1>         0.0778 
     15 H7         -2.6144   -0.8328   -2.6218 H         1 <1>         0.0778 
     16 H8         -0.9565   -1.3104    0.6339 H         1 <1>         0.0778 
     17 H9         -1.7555    0.1856    0.1001 H         1 <1>         0.0778 
     18 H10        -0.7612   -0.7282   -1.0291 H         1 <1>         0.0778 
     19 H11        -3.9748   -0.5946    0.8092 H         1 <1>         0.0778 
     20 H12        -3.3008   -2.1211    1.4092 H         1 <1>         0.0778 
     21 H13        -4.6242   -2.1356    0.2327 H         1 <1>         0.0778 
@<TRIPOS>BOND
     1    1    2 1    
     2    2    3 1    
     3    3    4 1    
     4    4    5 1    
     5    4    6 1    
     6    4    7 1    
     7    2    9 1    
     8    2   10 1    
     9    3   11 1    
    10    3   12 1    
    11    5   13 1    
    12    5   14 1    
    13    5   15 1    
    14    6   16 1    
    15    6   17 1    
    16    6   18 1    
    17    7   19 1    
    18    7   20 1    
    19    7   21 1    
@<TRIPOS>SUBSTRUCTURE
     1 ****        1 TEMP              0 ****  ****    0 ROOT 
@<TRIPOS>NORMAL
@<TRIPOS>FF_PBC
FORCE_FIELD_SETUP_FEATURE Force Field Setup information
v1.0  0 0.000000 0.000000 0.000000 0.000000 0.000000 0.000000 NONE 0 0 0 0 1 0 0 0 0 0 0 0 0
