#	Name:			PISM00826
#	Creating user name:	baoopengkun
#	Creation time:		Sat Dec 15 02:41:55 2018

#	Modifying user name:	baoopengkun
#	Modification time:	Sat Dec 15 02:51:09 2018

@<TRIPOS>MOLECULE
PISM00826
   37    40     1     1     0
SMALL
GAST_HUCK


@<TRIPOS>ATOM
      1 C1          2.9210   18.3116  -41.5533 C.ar      1 <1>        -0.0667 
      2 C2          3.2639   18.7816  -40.2806 C.ar      1 <1>        -0.0756 
      3 C3          4.5710   19.2046  -40.0054 C.ar      1 <1>        -0.0755 
      4 C4          5.5554   19.1718  -40.9997 C.ar      1 <1>        -0.0655 
      5 C5          5.1980   18.7282  -42.2745 C.ar      1 <1>        -0.0295 
      6 C6          3.9086   18.2865  -42.5391 C.ar      1 <1>        -0.0366 
      7 C7          3.7767   17.8033  -43.9750 C.3       1 <1>         0.0122 
      8 C8          5.2651   17.6334  -44.3990 C.3       1 <1>         0.1095 
      9 C9          6.0747   18.6285  -43.5169 C.3       1 <1>         0.0504 
     10 O10         5.4476   18.0263  -45.7647 O.3       1 <1>        -0.2748 
     11 C11         5.7777   19.3099  -45.7279 C.2       1 <1>         0.2375 
     12 C12         6.0799   19.8577  -44.3915 C.2       1 <1>         0.0631 
     13 O13         5.8249   19.9071  -46.7869 O.2       1 <1>        -0.3779 
     14 C14         6.3264   21.0503  -43.8127 C.2       1 <1>         0.0804 
     15 C15         6.3347   22.3967  -45.8233 C.3       1 <1>         0.1955 
     16 C16         6.7993   23.7081  -46.4226 C.2       1 <1>        -0.0111 
     17 C17         7.9147   23.5692  -47.1439 C.2       1 <1>         0.0164 
     18 C18         8.2749   22.1533  -47.0969 C.2       1 <1>         0.1911 
     19 N19         7.3606   21.5157  -46.3582 N.am      1 <1>        -0.2479 
     20 C20         8.6620   24.6576  -47.8657 C.3       1 <1>        -0.0334 
     21 O21         9.2408   21.6531  -47.6461 O.2       1 <1>        -0.3960 
     22 O22         6.3716   22.2649  -44.3988 O.3       1 <1>        -0.2789 
     23 H1          1.9135   17.9740  -41.7725 H         1 <1>         0.0537 
     24 H2          2.5101   18.8174  -39.4999 H         1 <1>         0.0541 
     25 H3          4.8235   19.5603  -39.0111 H         1 <1>         0.0541 
     26 H4          6.5729   19.4806  -40.7840 H         1 <1>         0.0538 
     27 H5          3.2804   18.5957  -44.5566 H         1 <1>         0.0443 
     28 H6          3.1999   16.8688  -44.0559 H         1 <1>         0.0443 
     29 H7          5.5830   16.5905  -44.2292 H         1 <1>         0.0707 
     30 H8          7.0969   18.2770  -43.3041 H         1 <1>         0.0565 
     31 H9          6.5088   21.0993  -42.7405 H         1 <1>         0.1079 
     32 H10         5.3919   22.0552  -46.2763 H         1 <1>         0.1112 
     33 H11         6.3023   24.6696  -46.3081 H         1 <1>         0.0690 
     34 H12         7.3674   20.5298  -46.1938 H         1 <1>         0.1895 
     35 H13         9.6852   24.3260  -48.0978 H         1 <1>         0.0348 
     36 H14         8.7153   25.5619  -47.2411 H         1 <1>         0.0348 
     37 H15         8.1419   24.8972  -48.8049 H         1 <1>         0.0348 
@<TRIPOS>BOND
     1    1    2 ar   
     2    3    2 ar   
     3    4    3 ar   
     4    5    4 ar   
     5    5    6 ar   
     6    6    1 ar   
     7    6    7 1    
     8    8    7 1    
     9    9    8 1    
    10    9    5 1    
    11    8   10 1    
    12   11   10 1    
    13   12   11 1    
    14   12    9 1    
    15   11   13 2    
    16   14   12 2    
    17   22   14 1    
    18   15   16 1    
    19   16   17 2    
    20   18   17 1    
    21   19   18 am   
    22   15   19 1    
    23   17   20 1    
    24   18   21 2    
    25   15   22 1    
    26    1   23 1    
    27    2   24 1    
    28    3   25 1    
    29    4   26 1    
    30    7   27 1    
    31    7   28 1    
    32    8   29 1    
    33    9   30 1    
    34   14   31 1    
    35   15   32 1    
    36   16   33 1    
    37   19   34 1    
    38   20   35 1    
    39   20   36 1    
    40   20   37 1    
@<TRIPOS>SUBSTRUCTURE
     1 ****       15 TEMP              0 ****  ****    0 ROOT 
@<TRIPOS>NORMAL
@<TRIPOS>FF_PBC
FORCE_FIELD_SETUP_FEATURE Force Field Setup information
v1.0  0 0.000000 0.000000 0.000000 0.000000 0.000000 0.000000 NONE 0 0 0 0 1 0 0 0 0 0 0 0 0
