#	Name:			PISM01149
#	Creating user name:	14062
#	Creation time:		Sat Apr 06 10:32:07 2019

#	Modifying user name:	14062
#	Modification time:	Sat Apr 06 10:38:22 2019

@<TRIPOS>MOLECULE
PISM01149
   45    47     1     1     0
SMALL
GAST_HUCK


@<TRIPOS>ATOM
      1 C1         -9.2852    1.3439    1.5961 C.3       1 <1>         0.1118 
      2 C2         -8.6765    2.1340    0.4067 C.3       1 <1>         0.1127 
      3 C3        -10.6243    0.6849    1.1628 C.3       1 <1>         0.1117 
      4 C4        -11.3716   -0.0032    2.3358 C.3       1 <1>         0.0730 
      5 O5        -12.6102   -0.5677    1.8721 O.3       1 <1>        -0.3924 
      6 O6         -8.3134    0.3622    2.0140 O.3       1 <1>        -0.3865 
      7 O7         -7.5112    2.8316    0.8957 O.3       1 <1>        -0.3865 
      8 C8         -9.7209    3.1224   -0.1847 C.3       1 <1>         0.1209 
      9 O9        -11.5231    1.6921    0.6611 O.3       1 <1>        -0.3529 
     10 O10        -9.2358    3.7500   -1.3883 O.3       1 <1>        -0.3855 
     11 S11       -12.3428    3.5368   -0.9720 S.3       1 <1>        -0.0587 
     12 C12       -11.0277    2.3584   -0.5141 C.3       1 <1>         0.1459 
     13 C13       -11.7743    3.8761   -2.6342 C.2       1 <1>         0.0910 
     14 N14       -11.8802    3.0901   -3.6321 N.2       1 <1>        -0.1603 
     15 O15       -12.5448    1.9214   -3.2145 O.3       1 <1>        -0.1157 
     16 S16       -13.9273    1.8444   -3.7996 S.o2      1 <1>         0.0688 
     17 O17       -14.8937    0.7029   -3.9227 O.3       1 <1>        -0.6963 
     18 O18       -13.2445    1.0757   -4.8236 O.2       1 <1>        -0.1528 
     19 O19       -14.2867    1.6870   -2.4039 O.2       1 <1>        -0.1528 
     20 C20       -11.1126    5.1625   -2.9309 C.2       1 <1>         0.0119 
     21 C21       -10.6423    5.5292   -4.1352 C.2       1 <1>         0.0407 
     22 N22       -10.0999    6.7162   -4.0573 N.pl3     1 <1>        -0.2736 
     23 C23       -10.1703    7.2098   -2.8068 C.ar      1 <1>         0.0681 
     24 C24       -10.8173    6.3042   -1.9842 C.ar      1 <1>        -0.0126 
     25 C25       -11.0363    6.5866   -0.6342 C.ar      1 <1>        -0.0728 
     26 C26       -10.5522    7.8066   -0.1438 C.ar      1 <1>        -0.0780 
     27 C27        -9.8862    8.7153   -0.9802 C.ar      1 <1>        -0.0754 
     28 C28        -9.6881    8.4309   -2.3370 C.ar      1 <1>        -0.0418 
     29 H1         -9.4770    2.0673    2.4074 H         1 <1>         0.0647 
     30 H2         -8.3853    1.4068   -0.3713 H         1 <1>         0.0647 
     31 H3        -10.4328   -0.0830    0.3940 H         1 <1>         0.0646 
     32 H4        -11.5687    0.7296    3.1359 H         1 <1>         0.0584 
     33 H5        -10.7860   -0.8343    2.7556 H         1 <1>         0.0584 
     34 H6        -13.1615    0.0875    1.4506 H         1 <1>         0.2095 
     35 H7         -8.5323   -0.0904    2.8210 H         1 <1>         0.2100 
     36 H8         -6.9998    3.2521    0.2131 H         1 <1>         0.2100 
     37 H9         -9.9618    3.8810    0.5793 H         1 <1>         0.0657 
     38 H10        -8.5098    4.3481   -1.2482 H         1 <1>         0.2100 
     39 H11       -10.8715    1.6451   -1.3393 H         1 <1>         0.0765 
     40 H13       -10.7073    4.9161   -5.0358 H         1 <1>         0.1005 
     41 H14        -9.6693    7.2122   -4.8523 H         1 <1>         0.2304 
     42 H15       -11.5595    5.9031    0.0212 H         1 <1>         0.0544 
     43 H16       -10.6963    8.0532    0.9038 H         1 <1>         0.0518 
     44 H17        -9.5199    9.6523   -0.5720 H         1 <1>         0.0536 
     45 H18        -9.1817    9.1268   -2.9970 H         1 <1>         0.0548 
@<TRIPOS>BOND
     1    1    2 1    
     2    1    3 1    
     3    9   12 1    
     4    3    4 1    
     5    4    5 1    
     6    1    6 1    
     7    2    8 1    
     8    3    9 1    
     9    2    7 1    
    10    8   10 1    
    11    8   12 1    
    12   12   11 1    
    13   11   13 1    
    14   13   14 2    
    15   14   15 1    
    16   15   16 1    
    17   16   17 1    
    18   16   18 2    
    19   16   19 2    
    20   13   20 1    
    21   20   21 2    
    22   21   22 1    
    23   22   23 1    
    24   23   24 ar   
    25   20   24 1    
    26   24   25 ar   
    27   25   26 ar   
    28   26   27 ar   
    29   27   28 ar   
    30   23   28 ar   
    31    1   29 1    
    32    2   30 1    
    33    3   31 1    
    34    4   32 1    
    35    4   33 1    
    36    5   34 1    
    37    6   35 1    
    38    7   36 1    
    39    8   37 1    
    40   10   38 1    
    41   12   39 1    
    42   21   40 1    
    43   22   41 1    
    44   25   42 1    
    45   26   43 1    
    46   27   44 1    
    47   28   45 1    
@<TRIPOS>SUBSTRUCTURE
     1 ****        1 TEMP              0 ****  ****    0 ROOT 
@<TRIPOS>NORMAL
@<TRIPOS>FF_PBC
FORCE_FIELD_SETUP_FEATURE Force Field Setup information
v1.0  0 0.000000 0.000000 0.000000 0.000000 0.000000 0.000000 NONE 0 0 0 0 1 0 0 0 0 0 0 0 0
