#	Name:			PISM00843
#	Creating user name:	baoopengkun
#	Creation time:		Thu Dec 13 14:40:19 2018

#	Modifying user name:	baoopengkun
#	Modification time:	Thu Dec 13 14:52:30 2018

@<TRIPOS>MOLECULE
PISM00843
   27    28     1     1     0
SMALL
GAST_HUCK


@<TRIPOS>ATOM
      1 C1         -6.5934   22.4936    2.3611 C.ar      1 <1>        -0.0392 
      2 C2         -7.8150   22.7432    2.9931 C.ar      1 <1>        -0.0690 
      3 C3         -8.7383   21.7085    3.1812 C.ar      1 <1>        -0.0568 
      4 C4         -8.4277   20.4191    2.7328 C.ar      1 <1>        -0.0690 
      5 C5         -7.2067   20.1689    2.0994 C.ar      1 <1>        -0.0392 
      6 C6         -6.2867   21.2045    1.9193 C.ar      1 <1>         0.0908 
      7 C7        -10.0736   22.0048    3.8747 C.3       1 <1>        -0.0363 
      8 O8         -5.0647   20.9512    1.3004 O.3       1 <1>        -0.2755 
      9 C9         -4.0334   20.6190    2.2380 C.3       1 <1>         0.2343 
     10 C10        -2.7382   20.4847    1.4766 C.2       1 <1>        -0.0022 
     11 C11        -1.8685   21.4146    1.8663 C.2       1 <1>         0.0291 
     12 C12        -2.5935   22.1494    2.8970 C.2       1 <1>         0.2494 
     13 O13        -3.8200   21.7130    3.1534 O.3       1 <1>        -0.2315 
     14 C14        -0.4696   21.6465    1.3645 C.3       1 <1>        -0.0323 
     15 O15        -2.1094   23.0968    3.4920 O.2       1 <1>        -0.3691 
     16 H1         -5.8795   23.2972    2.2123 H         1 <1>         0.0525 
     17 H2         -8.0446   23.7460    3.3393 H         1 <1>         0.0530 
     18 H3         -9.1312   19.6048    2.8738 H         1 <1>         0.0530 
     19 H4         -6.9683   19.1714    1.7458 H         1 <1>         0.0525 
     20 H5         -9.8896   22.1677    4.9471 H         1 <1>         0.0370 
     21 H6         -4.2645   19.6929    2.7903 H         1 <1>         0.1196 
     22 H7         -2.5492   19.7343    0.7102 H         1 <1>         0.0705 
     23 H8          0.1240   20.7270    1.4770 H         1 <1>         0.0347 
     24 H9          0.0122   22.4545    1.9353 H         1 <1>         0.0347 
     25 H10        -0.5004   21.9291    0.3017 H         1 <1>         0.0347 
     26 H11       -10.7878   21.1759    3.7581 H         1 <1>         0.0370 
     27 H12       -10.5227   22.9129    3.4448 H         1 <1>         0.0370 
@<TRIPOS>BOND
     1    2    1 ar   
     2    2    3 ar   
     3    3    4 ar   
     4    4    5 ar   
     5    5    6 ar   
     6    1    6 ar   
     7    3    7 1    
     8    6    8 1    
     9    8    9 1    
    10    9   10 1    
    11   10   11 2    
    12   11   12 1    
    13   12   13 1    
    14    9   13 1    
    15   11   14 1    
    16   12   15 2    
    17    1   16 1    
    18    2   17 1    
    19    4   18 1    
    20    5   19 1    
    21    7   20 1    
    22    9   21 1    
    23   10   22 1    
    24   14   23 1    
    25   14   24 1    
    26   14   25 1    
    27    7   26 1    
    28    7   27 1    
@<TRIPOS>SUBSTRUCTURE
     1 ****        2 TEMP              0 ****  ****    0 ROOT 
@<TRIPOS>NORMAL
@<TRIPOS>FF_PBC
FORCE_FIELD_SETUP_FEATURE Force Field Setup information
v1.0  0 0.000000 0.000000 0.000000 0.000000 0.000000 0.000000 NONE 0 0 0 0 1 0 0 0 0 0 0 0 0
