#	Name:			PISM00890.1
#	Creating user name:	baoopengkun
#	Creation time:		Fri Dec 14 09:30:18 2018

#	Modifying user name:	baoopengkun
#	Modification time:	Fri Dec 14 09:53:07 2018

@<TRIPOS>MOLECULE
PISM00890.1
   36    38     1     1     0
SMALL
GAST_HUCK


@<TRIPOS>ATOM
      1 C1          8.6734    7.8988    1.4180 C.3       1 <1>        -0.0566 
      2 C2          7.7201    7.2714    2.4677 C.3       1 <1>        -0.0602 
      3 C3          8.0941    5.7867    2.7126 C.3       1 <1>        -0.0547 
      4 C4          8.0370    4.9910    1.3830 C.3       1 <1>        -0.0602 
      5 C5          8.6125    7.1090    0.0819 C.3       1 <1>         0.0537 
      6 C6          8.9835    5.6243    0.3302 C.3       1 <1>        -0.0566 
      7 C7          9.5874    7.6824   -0.9166 C.2       1 <1>         0.0755 
      8 N8         10.8637    8.2713   -0.5886 N.2       1 <1>        -0.1953 
      9 N9         11.3479    8.6200   -1.7929 N.2       1 <1>        -0.0506 
     10 N10        10.4672    8.2927   -2.7620 N.pl3     1 <1>        -0.0810 
     11 C11         9.4166    7.7242   -2.2398 C.2       1 <1>         0.1346 
     12 C12        10.6944    8.5201   -4.1780 C.3       1 <1>         0.2558 
     13 C13        10.4221    9.9742   -4.4763 C.2       1 <1>         0.0036 
     14 C14         9.3934   10.0935   -5.3136 C.2       1 <1>         0.0297 
     15 C15         9.0055    8.7122   -5.5769 C.2       1 <1>         0.2500 
     16 O16         9.7398    7.7866   -4.9721 O.3       1 <1>        -0.2266 
     17 O17         8.0721    8.4177   -6.3023 O.2       1 <1>        -0.3691 
     18 C18         8.7838   11.3505   -5.8713 C.3       1 <1>        -0.0323 
     19 O19         7.2864    7.1536   -0.4781 O.3       1 <1>        -0.4351 
     20 H1          8.3943    8.9504    1.2418 H         1 <1>         0.0168 
     21 H2          9.7030    7.8827    1.8112 H         1 <1>         0.0168 
     22 H3          6.6797    7.3362    2.1088 H         1 <1>         0.0257 
     23 H4          7.7899    7.8325    3.4147 H         1 <1>         0.0257 
     24 H5          7.3949    5.3430    3.4412 H         1 <1>         0.0265 
     25 H6          9.1111    5.7267    3.1345 H         1 <1>         0.0265 
     26 H7          7.0039    4.9928    0.9980 H         1 <1>         0.0257 
     27 H8          8.3315    3.9436    1.5642 H         1 <1>         0.0257 
     28 H9          8.9054    5.0657   -0.6171 H         1 <1>         0.0168 
     29 H10        10.0252    5.5562    0.6846 H         1 <1>         0.0168 
     30 H11         8.5392    7.3394   -2.7596 H         1 <1>         0.1589 
     31 H12        11.7228    8.2344   -4.4527 H         1 <1>         0.1265 
     32 H13        10.9869   10.8064   -4.0572 H         1 <1>         0.0710 
     33 H14         8.2629   11.1302   -6.8152 H         1 <1>         0.0347 
     34 H15         9.5643   12.1020   -6.0631 H         1 <1>         0.0347 
     35 H16         8.0603   11.7574   -5.1495 H         1 <1>         0.0347 
     36 H17         6.9665    8.0406   -0.6068 H         1 <1>         0.1920 
@<TRIPOS>BOND
     1    5    1 1    
     2    1    2 1    
     3    2    3 1    
     4    3    4 1    
     5    4    6 1    
     6    5    6 1    
     7    5    7 1    
     8    7    8 1    
     9    8    9 2    
    10   10    9 1    
    11   11   10 1    
    12    7   11 2    
    13   10   12 1    
    14   12   13 1    
    15   13   14 2    
    16   15   14 1    
    17   16   15 1    
    18   12   16 1    
    19   15   17 2    
    20   14   18 1    
    21    5   19 1    
    22    1   20 1    
    23    1   21 1    
    24    2   22 1    
    25    2   23 1    
    26    3   24 1    
    27    3   25 1    
    28    4   26 1    
    29    4   27 1    
    30    6   28 1    
    31    6   29 1    
    32   11   30 1    
    33   12   31 1    
    34   13   32 1    
    35   18   33 1    
    36   18   34 1    
    37   18   35 1    
    38   19   36 1    
@<TRIPOS>SUBSTRUCTURE
     1 ****        5 TEMP              0 ****  ****    0 ROOT 
@<TRIPOS>NORMAL
@<TRIPOS>FF_PBC
FORCE_FIELD_SETUP_FEATURE Force Field Setup information
v1.0  0 0.000000 0.000000 0.000000 0.000000 0.000000 0.000000 NONE 0 0 0 0 1 0 0 0 0 0 0 0 0
