#	Name:			PISM01126
#	Creating user name:	14062
#	Creation time:		Sat Apr 06 23:15:31 2019

#	Modifying user name:	14062
#	Modification time:	Sat Apr 06 23:17:08 2019

@<TRIPOS>MOLECULE
PISM01126
   32    33     3     1     0
SMALL
GAST_HUCK


@<TRIPOS>ATOM
      1 C1        -16.3061   10.8957    1.1327 C.3       1 BENZYL      0.1639 
      2 O2        -14.9072   10.5564    1.1984 O.3       1 BENZYL     -0.2966 
      3 C2        -14.3032   10.3994   -0.0482 C.ar      1 BENZYL      0.0948 
      4 C3        -14.3550    9.1645   -0.7003 C.ar      1 BENZYL     -0.0322 
      5 C4        -13.7681    9.0149   -1.9604 C.ar      1 BENZYL     -0.0567 
      6 C5        -13.1225   10.0982   -2.5635 C.ar      1 BENZYL      0.0285 
      7 C6        -13.0580   11.3292   -1.9044 C.ar      1 BENZYL     -0.0567 
      8 C7        -13.6465   11.4787   -0.6451 C.ar      1 BENZYL     -0.0322 
      9 Cl9       -12.3938    9.9129   -4.1456 Cl        1 BENZYL     -0.0810 
     10 C10       -16.9177   11.0806    2.5043 C.2       1 BENZYL      0.2288 
     11 O11       -16.1929   11.0397    3.4847 O.2       1 BENZYL     -0.3776 
     12 N12       -18.2052   11.2960    2.5931 N.pl3     2 BENZYL     -0.2416 
     13 C2        -18.8242   11.4796    3.7870 C.ar      2 BENZYL      0.0878 
     14 C3        -18.5672   10.6055    4.8507 C.ar      2 BENZYL     -0.0508 
     15 C4        -19.1401   10.8218    6.1059 C.ar      2 BENZYL     -0.0857 
     16 C5        -20.0086   11.8983    6.2924 C.ar      2 BENZYL     -0.0858 
     17 C6        -20.3081   12.7430    5.2206 C.ar      2 BENZYL     -0.0467 
     18 C7        -19.7297   12.5403    3.9590 C.ar      2 BENZYL      0.1537 
     19 N         -20.0436   13.3632    2.9221 N.pl3     3 NO2         0.1174 
     20 O         -19.7957   12.9894    1.7955 O.2       3 NO2        -0.1160 
     21 O         -20.5662   14.4273    3.1739 O.2       3 NO2        -0.1160 
     22 H1        -16.8530   10.0931    0.6144 H         1 BENZYL      0.0867 
     23 H2        -16.4315   11.8387    0.5784 H         1 BENZYL      0.0867 
     24 H3        -14.8511    8.3250   -0.2247 H         1 BENZYL      0.0543 
     25 H4        -13.8123    8.0587   -2.4718 H         1 BENZYL      0.0595 
     26 H5        -12.5508   12.1671   -2.3716 H         1 BENZYL      0.0595 
     27 H6        -13.5967   12.4306   -0.1266 H         1 BENZYL      0.0543 
     28 H7        -18.7716   11.3669    1.7333 H         2 BENZYL      0.2073 
     29 H8        -17.9227    9.7440    4.7081 H         2 BENZYL      0.0488 
     30 H9        -18.9123   10.1554    6.9326 H         2 BENZYL      0.0474 
     31 H10       -20.4514   12.0761    7.2681 H         2 BENZYL      0.0481 
     32 H11       -21.0029   13.5602    5.3863 H         2 BENZYL      0.0479 
@<TRIPOS>BOND
     1    2    3 1    
     2    3    4 ar   
     3    3    8 ar   
     4    8    7 ar   
     5    7    6 ar   
     6    6    5 ar   
     7    5    4 ar   
     8    2    1 1    
     9    6    9 1    
    10    1   10 1    
    11   10   11 2    
    12   12   13 1    
    13   13   14 ar   
    14   13   18 ar   
    15   18   17 ar   
    16   17   16 ar   
    17   16   15 ar   
    18   15   14 ar   
    19   10   12 1    
    20   19   20 2    
    21   19   21 2    
    22   18   19 1    
    23    1   22 1    
    24    1   23 1    
    25    4   24 1    
    26    5   25 1    
    27    7   26 1    
    28    8   27 1    
    29   12   28 1    
    30   14   29 1    
    31   15   30 1    
    32   16   31 1    
    33   17   32 1    
@<TRIPOS>SUBSTRUCTURE
     1 BENZYL      2 PERM              0 ****  ****    1 ROOT 
     2 BENZYL     12 PERM              0 ****  ****    2  
     3 NO2        19 PERM              0 ****  ****    1  
@<TRIPOS>NORMAL
@<TRIPOS>FF_PBC
FORCE_FIELD_SETUP_FEATURE Force Field Setup information
v1.0  0 0.000000 0.000000 0.000000 0.000000 0.000000 0.000000 NONE 0 0 0 0 1 0 0 0 0 0 0 0 0
