#	Name:			PISM00524
#	Creating user name:	baoopengkun
#	Creation time:		Sun Jan 20 22:39:42 2019

#	Modifying user name:	baoopengkun
#	Modification time:	Sun Jan 20 22:40:05 2019

@<TRIPOS>MOLECULE
PISM00524
    8     7     1     1     0
SMALL
GAST_HUCK


@<TRIPOS>ATOM
      1 C1         -4.0016    7.3048   17.6129 C.2       1 <1>        -0.0791 
      2 C2         -3.6447    8.0520   16.5613 C.2       1 <1>        -0.0114 
      3 C3         -4.3073    7.9681   15.2471 C.2       1 <1>         0.1170 
      4 O4         -3.9275    8.6798   14.3318 O.2       1 <1>        -0.3659 
      5 H1         -3.4818    7.4014   18.5666 H         1 <1>         0.0700 
      6 H2         -4.8162    6.5841   17.5452 H         1 <1>         0.0700 
      7 H3         -2.8246    8.7644   16.6626 H         1 <1>         0.0676 
      8 H4         -5.1347    7.2812   15.0705 H         1 <1>         0.1319 
@<TRIPOS>BOND
     1    2    1 2    
     2    2    3 1    
     3    3    4 2    
     4    1    5 1    
     5    1    6 1    
     6    2    7 1    
     7    3    8 1    
@<TRIPOS>SUBSTRUCTURE
     1 ****        2 TEMP              0 ****  ****    0 ROOT 
@<TRIPOS>NORMAL
@<TRIPOS>FF_PBC
FORCE_FIELD_SETUP_FEATURE Force Field Setup information
v1.0  0 0.000000 0.000000 0.000000 0.000000 0.000000 0.000000 NONE 0 0 0 0 1 0 0 0 0 0 0 0 0
