#	Name:			PISM00887.1
#	Creating user name:	baoopengkun
#	Creation time:		Fri Dec 14 09:30:18 2018

#	Modifying user name:	baoopengkun
#	Modification time:	Fri Dec 14 09:43:13 2018

@<TRIPOS>MOLECULE
PISM00887.1
   29    31     1     1     0
SMALL
GAST_HUCK


@<TRIPOS>ATOM
      1 C1          6.2236    6.0700    2.4329 C.ar      1 <1>         0.1265 
      2 C2          6.3461    6.7144    3.6654 C.ar      1 <1>         0.0009 
      3 C3          6.8078    8.0310    3.7129 C.ar      1 <1>         0.1265 
      4 C4          7.1460    8.6971    2.5321 C.ar      1 <1>        -0.0308 
      5 C5          7.0263    8.0583    1.2923 C.ar      1 <1>        -0.0235 
      6 C6          6.5616    6.7376    1.2525 C.ar      1 <1>        -0.0308 
      7 C7          7.4063    8.8258    0.0427 C.2       1 <1>         0.0685 
      8 N8          7.8850   10.1869    0.0795 N.2       1 <1>        -0.2163 
      9 N9          8.1020   10.4666   -1.2163 N.2       1 <1>        -0.0855 
     10 N10         7.7817    9.4016   -1.9800 N.pl3     1 <1>        -0.1231 
     11 C11         7.3734    8.4160   -1.2304 C.2       1 <1>         0.0935 
     12 C12         7.9243    9.3672   -3.4249 C.3       1 <1>         0.2444 
     13 C13         6.6663    9.9229   -4.0456 C.2       1 <1>         0.0018 
     14 C14         6.0624    8.9949   -4.7852 C.2       1 <1>         0.0295 
     15 C15         6.9321    7.8312   -4.6510 C.2       1 <1>         0.2498 
     16 O16         8.0150    8.0096   -3.9044 O.3       1 <1>        -0.2283 
     17 O17         6.6893    6.7635   -5.1855 O.2       1 <1>        -0.3691 
     18 C18         4.7819    9.1139   -5.5658 C.3       1 <1>        -0.0323 
     19 F19         6.9255    8.6509    4.8842 F         1 <1>        -0.1857 
     20 F20         5.7834    4.8157    2.3824 F         1 <1>        -0.1857 
     21 H1          6.0842    6.1954    4.5806 H         1 <1>         0.0556 
     22 H2          7.5039    9.7195    2.5903 H         1 <1>         0.0533 
     23 H3          6.4544    6.2076    0.3146 H         1 <1>         0.0533 
     24 H4          7.0644    7.4387   -1.5963 H         1 <1>         0.1081 
     25 H5          8.8129    9.9409   -3.7334 H         1 <1>         0.1244 
     26 H6          6.3052   10.9405   -3.9001 H         1 <1>         0.0709 
     27 H7          4.9644    9.6898   -6.4852 H         1 <1>         0.0347 
     28 H8          4.0179    9.6278   -4.9633 H         1 <1>         0.0347 
     29 H9          4.4082    8.1153   -5.8379 H         1 <1>         0.0347 
@<TRIPOS>BOND
     1    2    1 ar   
     2    2    3 ar   
     3    3    4 ar   
     4    4    5 ar   
     5    5    6 ar   
     6    1    6 ar   
     7    5    7 1    
     8    7    8 1    
     9    8    9 2    
    10    9   10 1    
    11   10   11 1    
    12    7   11 2    
    13   10   12 1    
    14   12   13 1    
    15   13   14 2    
    16   14   15 1    
    17   15   16 1    
    18   12   16 1    
    19   15   17 2    
    20   14   18 1    
    21    3   19 1    
    22    1   20 1    
    23    2   21 1    
    24    4   22 1    
    25    6   23 1    
    26   11   24 1    
    27   12   25 1    
    28   13   26 1    
    29   18   27 1    
    30   18   28 1    
    31   18   29 1    
@<TRIPOS>SUBSTRUCTURE
     1 ****        2 TEMP              0 ****  ****    0 ROOT 
@<TRIPOS>NORMAL
@<TRIPOS>FF_PBC
FORCE_FIELD_SETUP_FEATURE Force Field Setup information
v1.0  0 0.000000 0.000000 0.000000 0.000000 0.000000 0.000000 NONE 0 0 0 0 1 0 0 0 0 0 0 0 0
