#	Name:			PISM00796
#	Creating user name:	baoopengkun
#	Creation time:		Sat Dec 15 02:03:48 2018

#	Modifying user name:	baoopengkun
#	Modification time:	Sat Dec 15 02:05:29 2018

@<TRIPOS>MOLECULE
PISM00796
   36    38     1     1     0
SMALL
GAST_HUCK


@<TRIPOS>ATOM
      1 C1          8.8834    8.6031  -42.1792 C.3       1 <1>        -0.0183 
      2 C2          7.3746    8.2887  -42.0178 C.3       1 <1>        -0.0170 
      3 C3          6.8068    9.1675  -40.8759 C.3       1 <1>         0.0620 
      4 O4          6.8966   10.5717  -41.1929 O.3       1 <1>        -0.3418 
      5 C5          8.0913   10.9419  -41.6825 C.2       1 <1>         0.1099 
      6 C6          9.0236   10.1010  -42.1351 C.2       1 <1>        -0.0236 
      7 C7          8.5503   12.3246  -41.7949 C.2       1 <1>         0.1277 
      8 O8          7.9542   13.3541  -41.5211 O.2       1 <1>        -0.4154 
      9 C9          9.9222   12.2266  -42.3037 C.2       1 <1>         0.0307 
     10 C10        10.2828   10.7890  -42.6230 C.3       1 <1>         0.0125 
     11 C11        10.5025   10.6014  -44.1467 C.3       1 <1>        -0.0478 
     12 C12        10.7428   13.2715  -42.4531 C.2       1 <1>         0.0843 
     13 O13        11.9904   13.0736  -42.9011 O.3       1 <1>        -0.2657 
     14 C14        12.7542   14.2847  -43.0172 C.3       1 <1>         0.2404 
     15 C15        14.0704   13.9333  -43.6656 C.2       1 <1>        -0.0006 
     16 C16        14.1832   14.5334  -44.8492 C.2       1 <1>         0.0293 
     17 C17        12.9416   15.2884  -44.9683 C.2       1 <1>         0.2496 
     18 O18        12.1104   15.1885  -43.9386 O.3       1 <1>        -0.2302 
     19 C19        15.3105   14.4592  -45.8424 C.3       1 <1>        -0.0323 
     20 O20        12.6835   15.9723  -45.9435 O.2       1 <1>        -0.3691 
     21 H1          9.2457    8.1729  -43.1248 H         1 <1>         0.0428 
     22 H2          9.4664    8.1747  -41.3486 H         1 <1>         0.0428 
     23 H3          7.2272    7.2172  -41.8038 H         1 <1>         0.0313 
     24 H4          6.8357    8.5392  -42.9470 H         1 <1>         0.0313 
     25 H5          7.3632    8.9705  -39.9446 H         1 <1>         0.0598 
     26 H6          5.7459    8.9315  -40.6967 H         1 <1>         0.0598 
     27 H7         11.1610   10.4684  -42.0397 H         1 <1>         0.0555 
     28 H8         10.7523    9.5562  -44.3801 H         1 <1>         0.0271 
     29 H9         11.3313   11.2318  -44.5016 H         1 <1>         0.0271 
     30 H10         9.5903   10.8806  -44.6966 H         1 <1>         0.0271 
     31 H11        10.3455   14.2564  -42.1932 H         1 <1>         0.1145 
     32 H12        12.9206   14.7718  -42.0413 H         1 <1>         0.1214 
     33 H13        14.8152   13.2731  -43.2228 H         1 <1>         0.0706 
     34 H14        15.8064   15.4392  -45.9043 H         1 <1>         0.0347 
     35 H15        14.9084   14.1982  -46.8326 H         1 <1>         0.0347 
     36 H16        16.0497   13.7002  -45.5452 H         1 <1>         0.0347 
@<TRIPOS>BOND
     1    2    1 1    
     2    2    3 1    
     3    3    4 1    
     4    4    5 1    
     5    5    6 2    
     6    1    6 1    
     7    5    7 1    
     8    7    8 2    
     9    7    9 1    
    10    9   10 1    
    11    6   10 1    
    12   10   11 1    
    13    9   12 2    
    14   12   13 1    
    15   13   14 1    
    16   14   15 1    
    17   15   16 2    
    18   16   17 1    
    19   17   18 1    
    20   14   18 1    
    21   16   19 1    
    22   17   20 2    
    23    1   21 1    
    24    1   22 1    
    25    2   23 1    
    26    2   24 1    
    27    3   25 1    
    28    3   26 1    
    29   10   27 1    
    30   11   28 1    
    31   11   29 1    
    32   11   30 1    
    33   12   31 1    
    34   14   32 1    
    35   15   33 1    
    36   19   34 1    
    37   19   35 1    
    38   19   36 1    
@<TRIPOS>SUBSTRUCTURE
     1 ****        2 TEMP              0 ****  ****    0 ROOT 
@<TRIPOS>NORMAL
@<TRIPOS>FF_PBC
FORCE_FIELD_SETUP_FEATURE Force Field Setup information
v1.0  0 0.000000 0.000000 0.000000 0.000000 0.000000 0.000000 NONE 0 0 0 0 1 0 0 0 0 0 0 0 0
