#	Name:			PISM01005.1
#	Creating user name:	malab
#	Creation time:		Mon Jul 01 21:55:25 2019

#	Modifying user name:	malab
#	Modification time:	Mon Jul 01 21:59:26 2019

@<TRIPOS>MOLECULE
PISM01005.1
   53    55     1     2     0
SMALL
GAST_HUCK


@<TRIPOS>ATOM
      1 C1         18.9088   11.9971   23.7088 C.3       1 <1>        -0.0652 
      2 C2         18.2399   11.8368   25.0987 C.3       1 <1>        -0.0535 
      3 C3         18.9090   10.6998   25.9179 C.3       1 <1>        -0.0253 
      4 C4         18.2462   10.5329   27.3078 C.3       1 <1>         0.0704 
      5 O5         18.9146    9.4688   28.0055 O.3       1 <1>        -0.3180 
      6 C6         18.4008    9.2250   29.2775 C.ar      1 <1>         0.0912 
      7 C7         17.3182    8.3569   29.4392 C.ar      1 <1>        -0.0313 
      8 C8         16.7825    8.1379   30.7116 C.ar      1 <1>        -0.0440 
      9 C9         17.3279    8.7885   31.8227 C.ar      1 <1>         0.0971 
     10 C10        18.4329    9.6297   31.6629 C.ar      1 <1>        -0.0440 
     11 C11        18.9681    9.8501   30.3905 C.ar      1 <1>        -0.0313 
     12 S12        16.5877    8.6037   33.4249 S.o2      1 <1>         0.0658 
     13 O13        17.6147    8.7499   34.4378 O.2       1 <1>        -0.1515 
     14 O14        15.7481    7.4216   33.4324 O.2       1 <1>        -0.1515 
     15 N15        15.6217    9.9592   33.3911 N.am      1 <1>        -0.2314 
     16 C16        16.0415   11.2014   34.0310 C.3       1 <1>         0.0499 
     17 C17        16.1433   12.2948   32.9390 C.3       1 <1>         0.0529 
     18 N18        14.9102   12.2599   32.1446 N.am      1 <1>        -0.2455 
     19 C19        14.4994   11.0049   31.5107 C.3       1 <1>         0.0529 
     20 C20        14.3827    9.9348   32.6221 C.3       1 <1>         0.0499 
     21 C21        14.1426   13.3699   31.9857 C.2       1 <1>         0.3278 
     22 O22        13.1140   13.3822   31.3285 O.2       1 <1>        -0.3772 
     23 C23        13.6904   15.6069   32.4361 C.3       1 <1>         0.2523 
     24 C24        12.3977   15.4024   33.1942 C.2       1 <1>         0.0067 
     25 C25        12.2813   16.2719   34.1960 C.2       1 <1>         0.0150 
     26 C26        13.5023   17.0598   34.0834 C.2       1 <1>         0.2395 
     27 O27        14.3165   16.7272   33.0896 O.3       1 <1>        -0.2294 
     28 O28        13.7601   17.9721   34.8491 O.2       1 <1>        -0.3742 
     29 H1         18.4205   12.8073   23.1442 H         1 <1>         0.0230 
     30 O30        14.5720   14.4819   32.5940 O.3       1 <1>        -0.2096 
     31 H2         18.8205   11.0645   23.1299 H         1 <1>         0.0230 
     32 H3         19.9761   12.2433   23.8221 H         1 <1>         0.0230 
     33 H4         17.1693   11.6109   24.9593 H         1 <1>         0.0263 
     34 H5         18.3232   12.7880   25.6507 H         1 <1>         0.0263 
     35 H6         19.9791   10.9229   26.0605 H         1 <1>         0.0291 
     36 H7         18.8262    9.7469   25.3697 H         1 <1>         0.0291 
     37 H8         17.1774   10.2918   27.1834 H         1 <1>         0.0614 
     38 H9         18.3365   11.4718   27.8791 H         1 <1>         0.0614 
     39 H10        16.8970    7.8563   28.5737 H         1 <1>         0.0542 
     40 H11        15.9418    7.4639   30.8350 H         1 <1>         0.0608 
     41 H12        18.8733   10.1138   32.5281 H         1 <1>         0.0608 
     42 H13        19.8225   10.5061   30.2606 H         1 <1>         0.0542 
     43 H14        17.0040   11.1060   34.5570 H         1 <1>         0.0498 
     44 H15        15.2769   11.4946   34.7678 H         1 <1>         0.0498 
     45 H16        16.9863   12.0560   32.2720 H         1 <1>         0.0538 
     46 H17        16.3677   13.2583   33.4235 H         1 <1>         0.0538 
     47 H18        15.2801   10.7004   30.7955 H         1 <1>         0.0538 
     48 H19        13.5450   11.0622   30.9618 H         1 <1>         0.0538 
     49 H20        14.1819    8.9476   32.1773 H         1 <1>         0.0498 
     50 H21        13.5426   10.1888   33.2877 H         1 <1>         0.0498 
     51 H22        13.5151   15.8665   31.3777 H         1 <1>         0.1251 
     52 H23        11.6526   14.6423   32.9614 H         1 <1>         0.0912 
     53 H24        11.4782   16.3803   34.9237 H         1 <1>         0.0486 
@<TRIPOS>BOND
     1    2    1 1    
     2    3    2 1    
     3    4    3 1    
     4    5    4 1    
     5    6    5 1    
     6    7    6 ar   
     7    8    7 ar   
     8    9    8 ar   
     9    9   10 ar   
    10   10   11 ar   
    11   11    6 ar   
    12   12    9 1    
    13   12   13 2    
    14   12   14 2    
    15   15   12 1    
    16   16   15 1    
    17   17   16 1    
    18   18   17 1    
    19   18   19 1    
    20   19   20 1    
    21   20   15 1    
    22   21   18 am   
    23   21   22 2    
    24   30   21 1    
    25   23   24 1    
    26   24   25 2    
    27   26   25 1    
    28   27   26 1    
    29   23   27 1    
    30   26   28 2    
    31    1   29 1    
    32   23   30 1    
    33    1   31 1    
    34    1   32 1    
    35    2   33 1    
    36    2   34 1    
    37    3   35 1    
    38    3   36 1    
    39    4   37 1    
    40    4   38 1    
    41    7   39 1    
    42    8   40 1    
    43   10   41 1    
    44   11   42 1    
    45   16   43 1    
    46   16   44 1    
    47   17   45 1    
    48   17   46 1    
    49   19   47 1    
    50   19   48 1    
    51   20   49 1    
    52   20   50 1    
    53   23   51 1    
    54   24   52 1    
    55   25   53 1    
@<TRIPOS>SUBSTRUCTURE
     1 ****       23 TEMP              0 ****  ****    0 ROOT 
@<TRIPOS>NORMAL
@<TRIPOS>FF_PBC
FORCE_FIELD_SETUP_FEATURE Force Field Setup information
v1.0  0 0.000000 0.000000 0.000000 0.000000 0.000000 0.000000 NONE 0 0 0 0 1 0 0 0 0 0 0 0 0
@<TRIPOS>RENDERING_ATTRS
ANTIALIASED_LINES 
*
