#	Name:			PISM00605
#	Creating user name:	baoopengkun
#	Creation time:		Mon Dec 10 09:55:31 2018

#	Modifying user name:	baoopengkun
#	Modification time:	Mon Dec 10 09:55:53 2018

@<TRIPOS>MOLECULE
PISM00605
   44    47     1     2     0
SMALL
GAST_HUCK


@<TRIPOS>ATOM
      1 C1          3.5716    9.4695   -6.6111 C.ar      1 <1>        -0.0348 
      2 C2          2.6615    9.8735   -5.6299 C.ar      1 <1>        -0.0180 
      3 C3          2.2414    8.9695   -4.6504 C.ar      1 <1>         0.0714 
      4 C4          2.7392    7.6637   -4.6471 C.ar      1 <1>        -0.0180 
      5 C5          3.6443    7.2587   -5.6322 C.ar      1 <1>        -0.0348 
      6 C6          4.0519    8.1558   -6.6255 C.ar      1 <1>         0.0068 
      7 C7          5.0237    7.6915   -7.7197 C.3       1 <1>         0.1921 
      8 C8          6.4765    7.8330   -7.2009 C.3       1 <1>         0.1073 
      9 N9          7.5282    7.4366   -8.1283 N.pl3     1 <1>        -0.1814 
     10 N10         8.8686    7.5171   -7.8944 N.2       1 <1>        -0.1908 
     11 C11         9.5798    7.1055   -8.8771 C.2       1 <1>         0.0618 
     12 N12         8.5545    6.7345   -9.8123 N.2       1 <1>        -0.2870 
     13 C13         7.4169    6.9476   -9.3264 C.2       1 <1>         0.1270 
     14 O14         4.8285    8.3837   -8.9595 O.3       1 <1>        -0.3814 
     15 C15         3.6218    7.8700   -9.5315 C.3       1 <1>         0.0672 
     16 C16         3.6440    6.3908   -9.0673 C.3       1 <1>         0.1003 
     17 O17         4.7212    6.3478   -8.1153 O.3       1 <1>        -0.3757 
     18 C18         2.2897    5.9231   -8.4739 C.3       1 <1>         0.0977 
     19 O19         2.4017    4.5602   -8.0295 O.3       1 <1>        -0.3154 
     20 C20         1.2306    4.0558   -7.4668 C.ar      1 <1>         0.0916 
     21 C21         0.9683    4.2503   -6.1081 C.ar      1 <1>        -0.0330 
     22 C22        -0.2152    3.7613   -5.5470 C.ar      1 <1>        -0.0701 
     23 C23        -1.1304    3.0686   -6.3456 C.ar      1 <1>        -0.0590 
     24 C24        -0.8624    2.8642   -7.7024 C.ar      1 <1>         0.0318 
     25 C25         0.3194    3.3569   -8.2624 C.ar      1 <1>        -0.0193 
     26 Cl26        1.0926    9.4723   -3.4273 Cl        1 <1>        -0.0420 
     27 H1          3.9057   10.1788   -7.3624 H         1 <1>         0.0849 
     28 H2          2.2797   10.8895   -5.6265 H         1 <1>         0.0703 
     29 H3          2.4212    6.9661   -3.8789 H         1 <1>         0.0703 
     30 H4          4.0299    6.2433   -5.6273 H         1 <1>         0.0849 
     31 H5          6.5912    7.2197   -6.2951 H         1 <1>         0.0595 
     32 H6          6.6524    8.8872   -6.9401 H         1 <1>         0.0595 
     33 H7         10.6629    7.0519   -8.9758 H         1 <1>         0.0863 
     34 H8          6.4977    6.7372   -9.8692 H         1 <1>         0.1361 
     35 H9          3.6228    7.9900  -10.6259 H         1 <1>         0.0576 
     36 H10         2.7637    8.4192   -9.1134 H         1 <1>         0.0576 
     37 H11         3.9236    5.7156   -9.8924 H         1 <1>         0.0635 
     38 H12         1.5140    5.9957   -9.2536 H         1 <1>         0.0640 
     39 H13         2.0021    6.5691   -7.6313 H         1 <1>         0.0640 
     40 H14         1.6867    4.7807   -5.4930 H         1 <1>         0.0544 
     41 H15        -0.4229    3.9187   -4.4929 H         1 <1>         0.0589 
     42 H16        -2.0502    2.6879   -5.9135 H         1 <1>         0.0529 
     43 Cl43       -2.0069    1.9913   -8.7006 Cl        1 <1>        -0.0736 
     44 H44         0.5326    3.1992   -9.3138 H         1 <1>         0.0547 
@<TRIPOS>BOND
     1    2    1 ar   
     2    2    3 ar   
     3    3    4 ar   
     4    4    5 ar   
     5    5    6 ar   
     6    1    6 ar   
     7    6    7 1    
     8    7    8 1    
     9    8    9 1    
    10    9   10 1    
    11   10   11 2    
    12   11   12 1    
    13   12   13 2    
    14    9   13 1    
    15    7   14 1    
    16   14   15 1    
    17   15   16 1    
    18   16   17 1    
    19    7   17 1    
    20   16   18 1    
    21   18   19 1    
    22   19   20 1    
    23   20   21 ar   
    24   21   22 ar   
    25   22   23 ar   
    26   23   24 ar   
    27   24   25 ar   
    28   20   25 ar   
    29    3   26 1    
    30    1   27 1    
    31    2   28 1    
    32    4   29 1    
    33    5   30 1    
    34    8   31 1    
    35    8   32 1    
    36   11   33 1    
    37   13   34 1    
    38   15   35 1    
    39   15   36 1    
    40   16   37 1    
    41   18   38 1    
    42   18   39 1    
    43   21   40 1    
    44   22   41 1    
    45   23   42 1    
    46   24   43 1    
    47   25   44 1    
@<TRIPOS>SUBSTRUCTURE
     1 ****        2 TEMP              0 ****  ****    0 ROOT 
@<TRIPOS>NORMAL
@<TRIPOS>FF_PBC
FORCE_FIELD_SETUP_FEATURE Force Field Setup information
v1.0  0 0.000000 0.000000 0.000000 0.000000 0.000000 0.000000 NONE 0 0 0 0 1 0 0 0 0 0 0 0 0
@<TRIPOS>RENDERING_ATTRS
ANTIALIASED_LINES 
*
