#	Name:			PISM00149
#	Creating user name:	14062
#	Creation time:		Sat Oct 19 22:43:01 2019

#	Modifying user name:	14062
#	Modification time:	Sat Oct 19 22:45:14 2019

@<TRIPOS>MOLECULE
PISM00149
   40    42     2     2     0
SMALL
GAST_HUCK


@<TRIPOS>ATOM
      1 C1          6.9432   -1.2709   -2.5955 C.2       1 BENZYL     -0.0058 
      2 C1          8.3008   -1.5774   -3.0856 C.2       1 BENZYL      0.1432 
      3 C2          8.5811   -1.8290   -4.5519 C.ar      1 BENZYL      0.0458 
      4 C3          7.7285   -2.5748   -5.3764 C.ar      1 BENZYL      0.0285 
      5 N5          7.9560   -2.6138   -6.7055 N.ar      1 BENZYL     -0.3000 
      6 C5          9.0736   -2.1085   -7.2667 C.ar      1 BENZYL      0.0263 
      7 C6         10.0073   -1.4309   -6.4743 C.ar      1 BENZYL     -0.0155 
      8 C7          9.7472   -1.2944   -5.1075 C.ar      1 BENZYL     -0.0364 
      9 C9         11.2908   -0.8306   -7.0622 C.3       1 BENZYL     -0.0176 
     10 C10        11.6114   -1.3971   -8.4680 C.3       1 BENZYL     -0.0421 
     11 C11        10.3397   -1.3404   -9.3480 C.3       1 BENZYL     -0.0399 
     12 C12         9.2769   -2.3067   -8.7695 C.3       1 BENZYL     -0.0056 
     13 C13         6.5471   -3.3835   -4.8353 C.3       1 BENZYL     -0.0169 
     14 O14         9.2291   -1.6112   -2.2939 O.2       1 BENZYL     -0.3795 
     15 C1          6.6119   -1.3105   -1.2987 C.2       2 BENZYL     -0.0389 
     16 C2          5.2212   -0.9803   -0.7992 C.ar      2 BENZYL     -0.0006 
     17 C3          4.5018    0.1309   -1.2584 C.ar      2 BENZYL      0.0527 
     18 C4          3.1801    0.3262   -0.8470 C.ar      2 BENZYL     -0.0439 
     19 C5          2.5946   -0.5395    0.0808 C.ar      2 BENZYL     -0.0583 
     20 C6          3.3364   -1.6037    0.5998 C.ar      2 BENZYL     -0.0578 
     21 C7          4.6455   -1.8204    0.1603 C.ar      2 BENZYL     -0.0496 
     22 Cl22        5.2342    1.3089   -2.3315 Cl        2 BENZYL     -0.0659 
     23 H1          6.1938   -1.0061   -3.3380 H         1 BENZYL      0.0654 
     24 H2         10.4505   -0.7646   -4.4731 H         1 BENZYL      0.0682 
     25 H3         12.1418   -1.0207   -6.3879 H         1 BENZYL      0.0413 
     26 H4         11.1366    0.2584   -7.1274 H         1 BENZYL      0.0413 
     27 H5         11.9543   -2.4418   -8.3828 H         1 BENZYL      0.0287 
     28 H6         12.4210   -0.8063   -8.9285 H         1 BENZYL      0.0287 
     29 H7         10.5781   -1.6326  -10.3845 H         1 BENZYL      0.0291 
     30 H8          9.9445   -0.3111   -9.3621 H         1 BENZYL      0.0291 
     31 H9          9.5962   -3.3508   -8.9139 H         1 BENZYL      0.0449 
     32 H10         8.3136   -2.1645   -9.2848 H         1 BENZYL      0.0449 
     33 H11         6.4272   -4.2839   -5.4560 H         1 BENZYL      0.0420 
     34 H12         5.6246   -2.7892   -4.9035 H         1 BENZYL      0.0420 
     35 H13         6.7132   -3.7031   -3.7960 H         1 BENZYL      0.0420 
     36 H14         7.3588   -1.6058   -0.5611 H         2 BENZYL      0.0749 
     37 H15         2.6084    1.1575   -1.2470 H         2 BENZYL      0.0632 
     38 H16         1.5680   -0.3842    0.3991 H         2 BENZYL      0.0642 
     39 H17         2.8954   -2.2626    1.3419 H         2 BENZYL      0.0627 
     40 H18         5.2148   -2.6517    0.5647 H         2 BENZYL      0.0652 
@<TRIPOS>BOND
     1    2    3 1    
     2    3    4 ar   
     3    3    8 ar   
     4    8    7 ar   
     5    7    6 ar   
     6    6    5 ar   
     7    5    4 ar   
     8    2    1 1    
     9    7    9 1    
    10    9   10 1    
    11   10   11 1    
    12   11   12 1    
    13    6   12 1    
    14    4   13 1    
    15    2   14 2    
    16   15   16 1    
    17   16   17 ar   
    18   16   21 ar   
    19   21   20 ar   
    20   20   19 ar   
    21   19   18 ar   
    22   18   17 ar   
    23    1   15 2    
    24   17   22 1    
    25    1   23 1    
    26    8   24 1    
    27    9   25 1    
    28    9   26 1    
    29   10   27 1    
    30   10   28 1    
    31   11   29 1    
    32   11   30 1    
    33   12   31 1    
    34   12   32 1    
    35   13   33 1    
    36   13   34 1    
    37   13   35 1    
    38   15   36 1    
    39   18   37 1    
    40   19   38 1    
    41   20   39 1    
    42   21   40 1    
@<TRIPOS>SUBSTRUCTURE
     1 BENZYL      2 PERM              0 ****  ****    1 ROOT 
     2 BENZYL     15 PERM              0 ****  ****    1  
@<TRIPOS>NORMAL
@<TRIPOS>FF_PBC
FORCE_FIELD_SETUP_FEATURE Force Field Setup information
v1.0  0 0.000000 0.000000 0.000000 0.000000 0.000000 0.000000 NONE 0 0 0 0 1 0 0 0 0 0 0 0 0
@<TRIPOS>RENDERING_ATTRS
ANTIALIASED_LINES 
*
