#	Name:			PISM00860.1
#	Creating user name:	baoopengkun
#	Creation time:		Thu Dec 13 15:12:19 2018

#	Modifying user name:	baoopengkun
#	Modification time:	Thu Dec 13 22:37:05 2018

@<TRIPOS>MOLECULE
PISM00860.1
   26    27     1     1     0
SMALL
GAST_HUCK


@<TRIPOS>ATOM
      1 Cl1        -0.0862    1.5500    1.6627 Cl        1 <1>        -0.0906 
      2 C2          2.5205    0.7814    1.9350 C.ar      1 <1>        -0.0677 
      3 C3          3.8883    0.8554    1.6548 C.ar      1 <1>        -0.0473 
      4 C4          4.3854    1.7877    0.7320 C.ar      1 <1>         0.1226 
      5 C5          3.4729    2.6413    0.0953 C.ar      1 <1>        -0.0083 
      6 C6          2.1026    2.5571    0.3557 C.ar      1 <1>         0.1008 
      7 C7          1.6237    1.6364    1.2913 C.ar      1 <1>         0.0541 
      8 N8          5.7166    1.8620    0.4600 N.pl3     1 <1>         0.1189 
      9 O9          1.2204    3.3993   -0.3202 O.3       1 <1>        -0.2733 
     10 C10         0.5643    2.8027   -1.4494 C.3       1 <1>         0.2356 
     11 O11        -0.2446    3.8187   -2.0744 O.3       1 <1>        -0.2313 
     12 C12         0.2762    3.9893   -3.2833 C.2       1 <1>         0.2494 
     13 C13         1.4072    3.1272   -3.6068 C.2       1 <1>         0.0292 
     14 C14         1.5711    2.4019   -2.5027 C.2       1 <1>        -0.0019 
     15 C15         2.1957    3.0626   -4.8862 C.3       1 <1>        -0.0323 
     16 O16        -0.1702    4.8077   -4.0687 O.2       1 <1>        -0.3691 
     17 H1          2.1510    0.0582    2.6554 H         1 <1>         0.0563 
     18 H2          4.5574    0.1729    2.1692 H         1 <1>         0.0429 
     19 H3          3.8101    3.3879   -0.6156 H         1 <1>         0.0437 
     20 H4         -0.0748    1.9523   -1.1615 H         1 <1>         0.1199 
     21 H5          2.3295    1.6301   -2.3777 H         1 <1>         0.0705 
     22 H6          2.2371    2.0247   -5.2487 H         1 <1>         0.0347 
     23 H7          3.2192    3.4236   -4.7062 H         1 <1>         0.0347 
     24 H8          1.7254    3.6911   -5.6574 H         1 <1>         0.0347 
     25 O25         6.4710    1.1468    1.0830 O.2       1 <1>        -0.1132 
     26 O26         6.0844    2.6376   -0.3956 O.2       1 <1>        -0.1132 
@<TRIPOS>BOND
     1    7    1 1    
     2    2    3 ar   
     3    3    4 ar   
     4    4    5 ar   
     5    5    6 ar   
     6    6    7 ar   
     7    2    7 ar   
     8    4    8 1    
     9    6    9 1    
    10    9   10 1    
    11   10   11 1    
    12   11   12 1    
    13   12   13 1    
    14   13   14 2    
    15   10   14 1    
    16   13   15 1    
    17   12   16 2    
    18    2   17 1    
    19    3   18 1    
    20    5   19 1    
    21   10   20 1    
    22   14   21 1    
    23   15   22 1    
    24   15   23 1    
    25   15   24 1    
    26    8   25 2    
    27    8   26 2    
@<TRIPOS>SUBSTRUCTURE
     1 ****        2 TEMP              0 ****  ****    0 ROOT 
@<TRIPOS>NORMAL
@<TRIPOS>FF_PBC
FORCE_FIELD_SETUP_FEATURE Force Field Setup information
v1.0  0 0.000000 0.000000 0.000000 0.000000 0.000000 0.000000 NONE 0 0 0 0 1 0 0 0 0 0 0 0 0
