#	Name:			PISM00566
#	Creating user name:	baoopengkun
#	Creation time:		Wed Dec 19 10:55:03 2018

#	Modifying user name:	baoopengkun
#	Modification time:	Wed Dec 19 11:08:08 2018

@<TRIPOS>MOLECULE
PISM00566
   16    16     1     1     0
SMALL
USER_CHARGES


@<TRIPOS>ATOM
      1 H1         19.1341   27.9070  -38.9143 H         1 <1>         0.0000 
      2 C2         21.4340   28.3895  -41.9967 C.ar      1 <1>         0.0000 
      3 C3         20.5256   27.3282  -41.9611 C.ar      1 <1>         0.0000 
      4 C4         19.6932   27.1488  -40.8503 C.ar      1 <1>         0.0000 
      5 C5         19.7791   28.0422  -39.7759 C.ar      1 <1>         0.0000 
      6 C6         20.6895   29.1071  -39.8047 C.ar      1 <1>         0.0000 
      7 C7         21.5142   29.2763  -40.9201 C.ar      1 <1>         0.0000 
      8 H2         20.2214   29.8143  -38.0034 H         1 <1>         0.0000 
      9 C9         18.7081   25.9992  -40.8100 C.2       1 <1>         0.0000 
     10 O10        18.6418   25.2280  -41.7561 O.2       1 <1>         0.0000 
     11 O11        17.9220   25.8415  -39.7385 O.3       1 <1>         0.0000 
     12 H12        22.0776   28.5252  -42.8605 H         1 <1>         0.0000 
     13 H3         20.4732   26.6458  -42.8033 H         1 <1>         0.0000 
     14 O14        20.7917   30.0078  -38.7389 O.3       1 <1>         0.0000 
     15 H5         17.3358   25.0943  -39.8002 H         1 <1>         0.0000 
     16 H16        22.2194   30.1007  -40.9479 H         1 <1>         0.0000 
@<TRIPOS>BOND
     1    5    1 1    
     2    2    3 ar   
     3    3    4 ar   
     4    4    5 ar   
     5    5    6 ar   
     6    6    7 ar   
     7    2    7 ar   
     8   14    8 1    
     9    4    9 1    
    10    9   10 2    
    11    9   11 1    
    12    2   12 1    
    13    3   13 1    
    14    6   14 1    
    15   11   15 1    
    16    7   16 1    
@<TRIPOS>SUBSTRUCTURE
     1 ****        2 TEMP              0 ****  ****    0 ROOT 
@<TRIPOS>NORMAL
@<TRIPOS>FF_PBC
FORCE_FIELD_SETUP_FEATURE Force Field Setup information
v1.0  0 0.000000 0.000000 0.000000 0.000000 0.000000 0.000000 NONE 0 0 0 0 0 0 0 0 0 0 0 0 0
