#	Name:			PISM00968
#	Creating user name:	baoopengkun
#	Creation time:		Thu Dec 13 10:35:31 2018

#	Modifying user name:	baoopengkun
#	Modification time:	Thu Dec 13 11:13:23 2018

@<TRIPOS>MOLECULE
PISM00968
   44    46     1     1     0
SMALL
GAST_HUCK


@<TRIPOS>ATOM
      1 C1         -6.4044   14.7720   -5.3377 C.ar      1 <1>        -0.0104 
      2 C2         -5.7579   13.5697   -5.6393 C.ar      1 <1>         0.0718 
      3 C3         -4.4502   13.6092   -6.1317 C.ar      1 <1>        -0.0104 
      4 C4         -3.8040   14.8319   -6.3378 C.ar      1 <1>        -0.0159 
      5 C5         -4.4572   16.0433   -6.0730 C.ar      1 <1>         0.0042 
      6 C6         -5.7574   15.9922   -5.5516 C.ar      1 <1>        -0.0159 
      7 C7         -3.7973   17.4208   -6.3192 C.3       1 <1>         0.1026 
      8 O8         -4.8808   18.3220   -6.6193 O.3       1 <1>        -0.4111 
      9 C9         -2.8053   17.3983   -7.5264 C.3       1 <1>        -0.0279 
     10 C10        -3.0949   17.8228   -4.9903 C.3       1 <1>         0.0895 
     11 N11        -4.0398   17.7413   -3.8863 N.pl3     1 <1>        -0.1819 
     12 N12        -4.9306   18.7015   -3.5112 N.2       1 <1>        -0.1907 
     13 C13        -5.6312   18.3685   -2.4917 C.2       1 <1>         0.0618 
     14 N14        -5.0972   17.0640   -2.2127 N.2       1 <1>        -0.2870 
     15 C15        -4.1962   16.7727   -3.0355 C.2       1 <1>         0.1271 
     16 C16        -2.3781   18.7908   -8.0664 C.3       1 <1>        -0.0222 
     17 C17        -1.3138   18.6036   -9.1584 C.ar      1 <1>        -0.0432 
     18 C18         0.0433   18.5578   -8.8187 C.ar      1 <1>        -0.0597 
     19 C19         1.0148   18.3947   -9.8106 C.ar      1 <1>        -0.0546 
     20 C20         0.6343   18.2734  -11.1494 C.ar      1 <1>         0.0330 
     21 C21        -0.7192   18.3127  -11.4936 C.ar      1 <1>        -0.0546 
     22 C22        -1.6899   18.4736  -10.5005 C.ar      1 <1>        -0.0597 
     23 Cl23        1.8513   18.0721  -12.3933 Cl        1 <1>        -0.0771 
     24 C24        -6.4574   12.2214   -5.4358 C.3       1 <1>         0.3942 
     25 F25        -7.8095   12.3700   -5.4167 F         1 <1>        -0.2083 
     26 F26        -6.1254   11.3701   -6.4435 F         1 <1>        -0.2083 
     27 F27        -6.0499   11.6905   -4.2529 F         1 <1>        -0.2083 
     28 H1         -7.4121   14.7655   -4.9332 H         1 <1>         0.0897 
     29 H2         -3.9298   12.6823   -6.3548 H         1 <1>         0.0897 
     30 H3         -2.7845   14.8129   -6.7028 H         1 <1>         0.0895 
     31 H4         -6.2827   16.9081   -5.2973 H         1 <1>         0.0895 
     32 H5         -4.6452   19.2427   -6.5978 H         1 <1>         0.1990 
     33 H6         -3.2812   16.8539   -8.3585 H         1 <1>         0.0240 
     34 H7         -1.8825   16.8679   -7.2451 H         1 <1>         0.0240 
     35 H8         -2.7251   18.8571   -5.0354 H         1 <1>         0.0592 
     36 H9         -2.2382   17.1593   -4.7948 H         1 <1>         0.0592 
     37 H10        -6.4146   18.9240   -1.9783 H         1 <1>         0.0863 
     38 H11        -3.6413   15.8354   -3.0196 H         1 <1>         0.1361 
     39 H12        -1.9623   19.4168   -7.2628 H         1 <1>         0.0422 
     40 H13        -3.2370   19.3260   -8.5006 H         1 <1>         0.0422 
     41 H14         0.3497   18.6472   -7.7813 H         1 <1>         0.0557 
     42 H15         2.0661   18.3617   -9.5434 H         1 <1>         0.0606 
     43 H16        -1.0144   18.2177  -12.5336 H         1 <1>         0.0606 
     44 H17        -2.7390   18.4956  -10.7785 H         1 <1>         0.0557 
@<TRIPOS>BOND
     1    2    1 ar   
     2    2    3 ar   
     3    3    4 ar   
     4    4    5 ar   
     5    5    6 ar   
     6    1    6 ar   
     7    5    7 1    
     8    7    8 1    
     9    7    9 1    
    10    7   10 1    
    11   10   11 1    
    12   11   12 1    
    13   12   13 2    
    14   13   14 1    
    15   14   15 2    
    16   11   15 1    
    17    9   16 1    
    18   16   17 1    
    19   17   18 ar   
    20   18   19 ar   
    21   19   20 ar   
    22   20   21 ar   
    23   21   22 ar   
    24   17   22 ar   
    25   20   23 1    
    26    2   24 1    
    27   24   25 1    
    28   24   26 1    
    29   24   27 1    
    30    1   28 1    
    31    3   29 1    
    32    4   30 1    
    33    6   31 1    
    34    8   32 1    
    35    9   33 1    
    36    9   34 1    
    37   10   35 1    
    38   10   36 1    
    39   13   37 1    
    40   15   38 1    
    41   16   39 1    
    42   16   40 1    
    43   18   41 1    
    44   19   42 1    
    45   21   43 1    
    46   22   44 1    
@<TRIPOS>SUBSTRUCTURE
     1 ****        2 TEMP              0 ****  ****    0 ROOT 
@<TRIPOS>NORMAL
@<TRIPOS>FF_PBC
FORCE_FIELD_SETUP_FEATURE Force Field Setup information
v1.0  0 0.000000 0.000000 0.000000 0.000000 0.000000 0.000000 NONE 0 0 0 0 1 0 0 0 0 0 0 0 0
