#	Name:			PISM00584
#	Creating user name:	baoopengkun
#	Creation time:		Mon Dec 10 10:57:55 2018

#	Modifying user name:	baoopengkun
#	Modification time:	Mon Dec 10 10:58:26 2018

@<TRIPOS>MOLECULE
PISM00584
   42    44     1     2     0
SMALL
GAST_HUCK


@<TRIPOS>ATOM
      1 C1         -9.4473   15.6196   -1.5644 C.ar      1 <1>        -0.0103 
      2 C2         -8.5766   15.0881   -2.5203 C.ar      1 <1>        -0.0135 
      3 C3         -9.0807   14.5078   -3.6886 C.ar      1 <1>         0.0314 
      4 C4        -10.4611   14.4957   -3.9102 C.ar      1 <1>        -0.0135 
      5 C5        -11.3315   15.0330   -2.9571 C.ar      1 <1>        -0.0103 
      6 C6        -10.8305   15.5835   -1.7724 C.ar      1 <1>         0.0719 
      7 C7         -8.1299   13.8850   -4.7159 C.3       1 <1>         0.2089 
      8 O8         -8.6150   14.0713   -6.0505 O.3       1 <1>        -0.3715 
      9 C9         -7.4968   13.9564   -6.9393 C.3       1 <1>         0.0674 
     10 C10        -6.2866   14.3389   -6.0453 C.3       1 <1>         0.0755 
     11 O11        -6.9015   14.6215   -4.7816 O.3       1 <1>        -0.3685 
     12 C12        -7.9315   12.3924   -4.3525 C.3       1 <1>         0.1150 
     13 N13        -7.4878   12.3118   -2.9711 N.pl3     1 <1>        -0.1794 
     14 C14        -6.3107   12.5870   -2.5002 C.2       1 <1>         0.1272 
     15 N15        -6.2950   12.4114   -1.2577 N.2       1 <1>        -0.2870 
     16 C16        -7.5811   11.9663   -0.7955 C.2       1 <1>         0.0618 
     17 N17        -8.2351   11.9334   -1.8967 N.2       1 <1>        -0.1906 
     18 C18       -11.7944   16.1401   -0.7187 C.3       1 <1>         0.3942 
     19 F19       -12.9401   15.4069   -0.6971 F         1 <1>        -0.2083 
     20 F20       -12.0959   17.4274   -1.0345 F         1 <1>        -0.2083 
     21 F21       -11.2309   16.1045    0.5191 F         1 <1>        -0.2083 
     22 C22        -5.5046   15.5907   -6.5191 C.3       1 <1>        -0.0255 
     23 C23        -4.7062   15.3255   -7.8251 C.3       1 <1>        -0.0535 
     24 C24        -3.9449   16.5975   -8.2807 C.3       1 <1>        -0.0652 
     25 H1         -9.0417   16.0613   -0.6596 H         1 <1>         0.0897 
     26 H2         -7.5054   15.1258   -2.3504 H         1 <1>         0.0896 
     27 H3        -10.8593   14.0662   -4.8242 H         1 <1>         0.0896 
     28 H4        -12.4014   15.0213   -3.1409 H         1 <1>         0.0897 
     29 H5         -7.6631   14.6319   -7.7911 H         1 <1>         0.0577 
     30 H6         -7.4127   12.9230   -7.3119 H         1 <1>         0.0577 
     31 H7         -5.5949   13.4883   -5.9247 H         1 <1>         0.0610 
     32 H8         -7.2074   11.8905   -5.0084 H         1 <1>         0.0618 
     33 H9         -8.8981   11.8753   -4.4463 H         1 <1>         0.0618 
     34 H10        -5.4558   12.9268   -3.0843 H         1 <1>         0.1361 
     35 H11        -7.9117   11.7227    0.2131 H         1 <1>         0.0863 
     36 H12        -4.8020   15.8781   -5.7198 H         1 <1>         0.0290 
     37 H13        -6.2142   16.4213   -6.6633 H         1 <1>         0.0290 
     38 H14        -5.3856   15.0104   -8.6333 H         1 <1>         0.0263 
     39 H15        -3.9799   14.5138   -7.6525 H         1 <1>         0.0263 
     40 H16        -3.3757   16.3910   -9.2010 H         1 <1>         0.0230 
     41 H17        -3.2408   16.9257   -7.5002 H         1 <1>         0.0230 
     42 H18        -4.6538   17.4154   -8.4841 H         1 <1>         0.0230 
@<TRIPOS>BOND
     1    2    1 ar   
     2    2    3 ar   
     3    3    4 ar   
     4    4    5 ar   
     5    5    6 ar   
     6    1    6 ar   
     7    3    7 1    
     8    7    8 1    
     9    8    9 1    
    10    9   10 1    
    11   10   11 1    
    12    7   11 1    
    13    7   12 1    
    14   12   13 1    
    15   13   14 1    
    16   14   15 2    
    17   15   16 1    
    18   16   17 2    
    19   13   17 1    
    20    6   18 1    
    21   18   19 1    
    22   18   20 1    
    23   18   21 1    
    24   10   22 1    
    25   22   23 1    
    26   23   24 1    
    27    1   25 1    
    28    2   26 1    
    29    4   27 1    
    30    5   28 1    
    31    9   29 1    
    32    9   30 1    
    33   10   31 1    
    34   12   32 1    
    35   12   33 1    
    36   14   34 1    
    37   16   35 1    
    38   22   36 1    
    39   22   37 1    
    40   23   38 1    
    41   23   39 1    
    42   24   40 1    
    43   24   41 1    
    44   24   42 1    
@<TRIPOS>SUBSTRUCTURE
     1 ****        2 TEMP              0 ****  ****    0 ROOT 
@<TRIPOS>NORMAL
@<TRIPOS>FF_PBC
FORCE_FIELD_SETUP_FEATURE Force Field Setup information
v1.0  0 0.000000 0.000000 0.000000 0.000000 0.000000 0.000000 NONE 0 0 0 0 1 0 0 0 0 0 0 0 0
@<TRIPOS>RENDERING_ATTRS
ANTIALIASED_LINES 
*
