#	Name:			PISM00052
#	Creating user name:	baoopengkun
#	Creation time:		Thu Dec 27 11:28:11 2018

#	Modifying user name:	baoopengkun
#	Modification time:	Thu Dec 27 11:30:12 2018

@<TRIPOS>MOLECULE
PISM00052
   34    36     1     1     0
SMALL
GAST_HUCK


@<TRIPOS>ATOM
      1 I1        -14.5036   12.0439   -2.1443 I         1 <1>        -0.0457 
      2 C2        -12.8830   12.5385   -3.3029 C.ar      1 <1>         0.0139 
      3 C3        -13.0725   13.1324   -4.5542 C.ar      1 <1>        -0.0450 
      4 C4        -11.9686   13.4822   -5.3373 C.ar      1 <1>        -0.0376 
      5 C5        -10.6735   13.2468   -4.8660 C.ar      1 <1>         0.0674 
      6 C6        -10.4849   12.6276   -3.6256 C.ar      1 <1>        -0.0376 
      7 C7        -11.5889   12.2811   -2.8413 C.ar      1 <1>        -0.0450 
      8 C8         -9.4779   13.6420   -5.7027 C.2       1 <1>         0.2701 
      9 O9         -9.4344   13.1142   -6.8025 O.2       1 <1>        -0.3460 
     10 N10        -8.5267   14.4561   -5.3145 N.pl3     1 <1>        -0.1723 
     11 C11        -7.4452   14.6426   -6.0356 C.2       1 <1>         0.0752 
     12 C12        -6.5811   15.4402   -5.3937 C.2       1 <1>         0.0675 
     13 C13        -7.2281   15.7957   -4.0816 C.ar      1 <1>        -0.0020 
     14 C14        -8.4709   15.1905   -4.1741 C.ar      1 <1>         0.0927 
     15 C15        -9.4306   15.4415   -3.1867 C.ar      1 <1>        -0.0380 
     16 C16        -9.0300   16.1438   -2.0423 C.ar      1 <1>        -0.0745 
     17 C17        -7.7388   16.6784   -1.9303 C.ar      1 <1>        -0.0773 
     18 C18        -6.8168   16.5343   -2.9726 C.ar      1 <1>        -0.0715 
     19 C19        -5.2569   15.8860   -5.8538 C.2       1 <1>         0.2376 
     20 O20        -4.8631   15.5008   -6.9436 O.2       1 <1>        -0.3751 
     21 O21        -4.5186   16.6943   -5.0805 O.3       1 <1>        -0.2861 
     22 C22        -3.2449   17.0490   -5.6538 C.3       1 <1>         0.0640 
     23 H1        -14.0775   13.3221   -4.9178 H         1 <1>         0.0657 
     24 H2        -12.1155   13.9384   -6.3115 H         1 <1>         0.0677 
     25 H3         -9.4804   12.4168   -3.2713 H         1 <1>         0.0677 
     26 H4        -11.4415   11.8120   -1.8737 H         1 <1>         0.0657 
     27 H5         -7.2242   14.2138   -7.0152 H         1 <1>         0.1100 
     28 H6        -10.4651   15.1430   -3.2782 H         1 <1>         0.0557 
     29 H7         -9.7352   16.2828   -1.2281 H         1 <1>         0.0538 
     30 H8         -7.4517   17.2127   -1.0296 H         1 <1>         0.0525 
     31 H9         -5.8280   16.9759   -2.9186 H         1 <1>         0.0542 
     32 H10        -2.6198   16.1571   -5.8211 H         1 <1>         0.0574 
     33 H11        -2.7263   17.7082   -4.9424 H         1 <1>         0.0574 
     34 H12        -3.3713   17.5928   -6.6037 H         1 <1>         0.0574 
@<TRIPOS>BOND
     1    2    1 1    
     2    2    3 ar   
     3    3    4 ar   
     4    4    5 ar   
     5    5    6 ar   
     6    6    7 ar   
     7    2    7 ar   
     8    5    8 1    
     9    8    9 2    
    10    8   10 1    
    11   10   11 1    
    12   11   12 2    
    13   12   13 1    
    14   13   14 ar   
    15   10   14 1    
    16   14   15 ar   
    17   15   16 ar   
    18   16   17 ar   
    19   17   18 ar   
    20   13   18 ar   
    21   12   19 1    
    22   19   20 2    
    23   19   21 1    
    24   21   22 1    
    25    3   23 1    
    26    4   24 1    
    27    6   25 1    
    28    7   26 1    
    29   11   27 1    
    30   15   28 1    
    31   16   29 1    
    32   17   30 1    
    33   18   31 1    
    34   22   32 1    
    35   22   33 1    
    36   22   34 1    
@<TRIPOS>SUBSTRUCTURE
     1 ****        2 TEMP              0 ****  ****    0 ROOT 
@<TRIPOS>NORMAL
@<TRIPOS>FF_PBC
FORCE_FIELD_SETUP_FEATURE Force Field Setup information
v1.0  0 0.000000 0.000000 0.000000 0.000000 0.000000 0.000000 NONE 0 0 0 0 1 0 0 0 0 0 0 0 0
