#	Name:			PISM00868.1
#	Creating user name:	baoopengkun
#	Creation time:		Thu Dec 13 23:15:37 2018

#	Modifying user name:	baoopengkun
#	Modification time:	Thu Dec 13 23:32:35 2018

@<TRIPOS>MOLECULE
PISM00868.1
   24    25     1     1     0
SMALL
GAST_HUCK


@<TRIPOS>ATOM
      1 H2          1.0654    0.9502    1.7392 H         1 <1>         0.0531 
      2 C2          2.4173   -0.5447    2.5114 C.ar      1 <1>        -0.0607 
      3 C3          3.6978   -1.0988    2.4270 C.ar      1 <1>         0.0267 
      4 C4          4.6153   -0.5973    1.4998 C.ar      1 <1>        -0.0229 
      5 C5          4.2517    0.4539    0.6545 C.ar      1 <1>         0.1605 
      6 C6          2.9729    1.0134    0.7425 C.ar      1 <1>         0.1318 
      7 C7          2.0564    0.5132    1.6716 C.ar      1 <1>        -0.0335 
      8 F8          5.1251    0.9165   -0.2379 F         1 <1>        -0.1901 
      9 O9          2.6106    2.0710   -0.0916 O.3       1 <1>        -0.2705 
     10 C10         1.9249    1.6803   -1.2899 C.3       1 <1>         0.2351 
     11 O11         1.6490    2.8769   -2.0443 O.3       1 <1>        -0.2314 
     12 C12         2.3492    2.7555   -3.1653 C.2       1 <1>         0.2494 
     13 C13         3.0980    1.5120   -3.3059 C.2       1 <1>         0.0292 
     14 C14         2.8268    0.8563   -2.1795 C.2       1 <1>        -0.0021 
     15 C15         3.9608    1.0668   -4.4548 C.3       1 <1>        -0.0323 
     16 O16         2.3537    3.6245   -4.0202 O.2       1 <1>        -0.3691 
     17 H1          1.7050   -0.9366    3.2306 H         1 <1>         0.0561 
     18 Cl18        4.1524   -2.4207    3.4823 Cl        1 <1>        -0.0820 
     19 H3          5.6106   -1.0228    1.4329 H         1 <1>         0.0580 
     20 H4          0.9785    1.1585   -1.0714 H         1 <1>         0.1197 
     21 H5          3.2095   -0.1340   -1.9364 H         1 <1>         0.0705 
     22 H6          3.6908    0.0429   -4.7534 H         1 <1>         0.0347 
     23 H7          5.0173    1.0871   -4.1486 H         1 <1>         0.0347 
     24 H8          3.8248    1.7372   -5.3167 H         1 <1>         0.0347 
@<TRIPOS>BOND
     1    7    1 1    
     2    3    2 ar   
     3    4    3 ar   
     4    5    4 ar   
     5    6    5 ar   
     6    6    7 ar   
     7    2    7 ar   
     8    5    8 1    
     9    6    9 1    
    10    9   10 1    
    11   10   11 1    
    12   11   12 1    
    13   12   13 1    
    14   13   14 2    
    15   10   14 1    
    16   13   15 1    
    17   12   16 2    
    18    2   17 1    
    19    3   18 1    
    20    4   19 1    
    21   10   20 1    
    22   14   21 1    
    23   15   22 1    
    24   15   23 1    
    25   15   24 1    
@<TRIPOS>SUBSTRUCTURE
     1 ****        2 TEMP              0 ****  ****    0 ROOT 
@<TRIPOS>NORMAL
@<TRIPOS>FF_PBC
FORCE_FIELD_SETUP_FEATURE Force Field Setup information
v1.0  0 0.000000 0.000000 0.000000 0.000000 0.000000 0.000000 NONE 0 0 0 0 1 0 0 0 0 0 0 0 0
