#	Name:			PISM00344
#	Creating user name:	baoopengkun
#	Creation time:		Sun Mar 31 18:46:55 2019

#	Modifying user name:	baoopengkun
#	Modification time:	Sun Mar 31 18:53:14 2019

@<TRIPOS>MOLECULE
PISM00344
   73    73     1     1     0
SMALL
GAST_HUCK


@<TRIPOS>ATOM
      1 C1         11.5128   -3.5791  -13.2490 C.3       1 <1>        -0.0486 
      2 C2         10.8333   -4.9258  -12.8652 C.3       1 <1>         0.0225 
      3 C3          9.8452   -4.7000  -11.7571 C.2       1 <1>         0.1783 
      4 C4          9.1585   -3.4052  -11.5986 C.2       1 <1>         0.1080 
      5 C5          9.3983   -2.3756  -12.4248 C.2       1 <1>        -0.0545 
      6 C6         10.4139   -2.4993  -13.5430 C.3       1 <1>         0.0241 
      7 C7         12.4393   -3.1451  -12.0676 C.3       1 <1>        -0.0722 
      8 C8         12.3960   -3.7976  -14.5124 C.3       1 <1>        -0.0722 
      9 O9          9.6124   -5.6075  -10.9743 O.2       1 <1>        -0.3530 
     10 S10         7.9939   -3.2652  -10.2504 S.3       1 <1>        -0.0484 
     11 C11         8.6855   -1.0422  -12.3236 C.3       1 <1>        -0.0414 
     12 C12         9.5793   -2.8564  -14.7552 C.2       1 <1>        -0.0993 
     13 C13         9.5463   -2.1382  -15.8861 C.2       1 <1>        -0.0245 
     14 C14         8.7237   -2.5316  -17.0499 C.2       1 <1>         0.0167 
     15 C15         8.7503   -3.9801  -17.4852 C.3       1 <1>        -0.0145 
     16 C16         7.9729   -1.6463  -17.7248 C.2       1 <1>         0.0580 
     17 C17         7.8175   -0.2074  -17.4019 C.2       1 <1>         0.2688 
     18 O18         8.2008    0.2374  -16.3346 O.2       1 <1>        -0.3498 
     19 O19         7.2451    0.6474  -18.2562 O.3       1 <1>        -0.2928 
     20 O20        11.0209   -1.2179  -13.7908 O.3       1 <1>        -0.4725 
     21 C21         9.2241   -2.6654   -9.0475 C.3       1 <1>         0.0189 
     22 C22         8.4910   -2.2940   -7.7338 C.3       1 <1>        -0.0402 
     23 C23         9.4831   -1.7557   -6.6674 C.3       1 <1>        -0.0520 
     24 C24         8.7425   -1.3517   -5.3632 C.3       1 <1>        -0.0530 
     25 C25         9.7295   -0.8062   -4.2951 C.3       1 <1>        -0.0531 
     26 C26         8.9831   -0.3866   -2.9990 C.3       1 <1>        -0.0531 
     27 C27         9.9683    0.1539   -1.9265 C.3       1 <1>        -0.0531 
     28 C28         9.2188    0.5906   -0.6378 C.3       1 <1>        -0.0531 
     29 C29        10.2028    1.1369    0.4327 C.3       1 <1>        -0.0533 
     30 C30         9.4514    1.5748    1.7195 C.3       1 <1>        -0.0559 
     31 C31        10.4341    2.1149    2.7911 C.3       1 <1>        -0.0653 
     32 H1         11.5917   -5.6509  -12.5308 H         1 <1>         0.0479 
     33 H2         10.3022   -5.3869  -13.7095 H         1 <1>         0.0479 
     34 H3         13.1074   -3.9672  -11.7689 H         1 <1>         0.0220 
     35 H4         11.8501   -2.8505  -11.1865 H         1 <1>         0.0220 
     36 H5         13.0875   -2.3026  -12.3483 H         1 <1>         0.0220 
     37 H6         13.1951   -4.5251  -14.3027 H         1 <1>         0.0220 
     38 H7         12.8612   -2.8491  -14.8210 H         1 <1>         0.0220 
     39 H8         11.8018   -4.1781  -15.3564 H         1 <1>         0.0220 
     40 H9          8.4608   -0.6649  -13.3334 H         1 <1>         0.0386 
     41 H10         9.3351   -0.3150  -11.8150 H         1 <1>         0.0386 
     42 H11         7.7329   -1.0939  -11.7788 H         1 <1>         0.0386 
     43 H12         8.9523   -3.7453  -14.7039 H         1 <1>         0.0493 
     44 H13        10.1397   -1.2286  -15.9759 H         1 <1>         0.1042 
     45 H14         7.8410   -4.4853  -17.1266 H         1 <1>         0.0429 
     46 H15         9.6290   -4.4999  -17.0733 H         1 <1>         0.0429 
     47 H16         8.7966   -4.0646  -18.5819 H         1 <1>         0.0429 
     48 H17         7.4138   -2.0131  -18.5848 H         1 <1>         0.0917 
     49 H18         6.9668    0.2679  -19.0797 H         1 <1>         0.2516 
     50 H19        11.4513   -0.8335  -13.0368 H         1 <1>         0.1785 
     51 H20         9.7352   -1.7813   -9.4604 H         1 <1>         0.0422 
     52 H21         9.9674   -3.4586   -8.8690 H         1 <1>         0.0422 
     53 H22         7.9745   -3.1859   -7.3425 H         1 <1>         0.0276 
     54 H23         7.7337   -1.5235   -7.9537 H         1 <1>         0.0276 
     55 H24        10.0117   -0.8767   -7.0721 H         1 <1>         0.0266 
     56 H25        10.2306   -2.5336   -6.4396 H         1 <1>         0.0266 
     57 H26         8.2141   -2.2300   -4.9571 H         1 <1>         0.0265 
     58 H27         7.9945   -0.5759   -5.5959 H         1 <1>         0.0265 
     59 H28        10.2642    0.0665   -4.7048 H         1 <1>         0.0265 
     60 H29        10.4723   -1.5843   -4.0541 H         1 <1>         0.0265 
     61 H30         8.4423   -1.2565   -2.5911 H         1 <1>         0.0265 
     62 H31         8.2451    0.3955   -3.2422 H         1 <1>         0.0265 
     63 H32        10.5171    1.0169   -2.3381 H         1 <1>         0.0265 
     64 H33        10.6996   -0.6320   -1.6746 H         1 <1>         0.0265 
     65 H34         8.6721   -0.2726   -0.2239 H         1 <1>         0.0265 
     66 H35         8.4860    1.3744   -0.8907 H         1 <1>         0.0265 
     67 H36        10.7493    2.0008    0.0197 H         1 <1>         0.0265 
     68 H37        10.9359    0.3543    0.6881 H         1 <1>         0.0265 
     69 H38         8.9013    0.7149    2.1370 H         1 <1>         0.0263 
     70 H39         8.7214    2.3631    1.4707 H         1 <1>         0.0263 
     71 H40        11.1594    1.3362    3.0743 H         1 <1>         0.0230 
     72 H41         9.8808    2.4224    3.6926 H         1 <1>         0.0230 
     73 H42        10.9844    2.9866    2.4039 H         1 <1>         0.0230 
@<TRIPOS>BOND
     1    2    1 1    
     2    2    3 1    
     3    3    4 1    
     4    4    5 2    
     5    5    6 1    
     6    1    6 1    
     7    1    7 1    
     8    1    8 1    
     9    3    9 2    
    10    4   10 1    
    11    5   11 1    
    12    6   12 1    
    13   12   13 2    
    14   13   14 1    
    15   14   15 1    
    16   14   16 2    
    17   16   17 1    
    18   17   18 2    
    19   17   19 1    
    20    6   20 1    
    21   10   21 1    
    22   21   22 1    
    23   22   23 1    
    24   23   24 1    
    25   24   25 1    
    26   25   26 1    
    27   26   27 1    
    28   27   28 1    
    29   28   29 1    
    30   29   30 1    
    31   30   31 1    
    32    2   32 1    
    33    2   33 1    
    34    7   34 1    
    35    7   35 1    
    36    7   36 1    
    37    8   37 1    
    38    8   38 1    
    39    8   39 1    
    40   11   40 1    
    41   11   41 1    
    42   11   42 1    
    43   12   43 1    
    44   13   44 1    
    45   15   45 1    
    46   15   46 1    
    47   15   47 1    
    48   16   48 1    
    49   19   49 1    
    50   20   50 1    
    51   21   51 1    
    52   21   52 1    
    53   22   53 1    
    54   22   54 1    
    55   23   55 1    
    56   23   56 1    
    57   24   57 1    
    58   24   58 1    
    59   25   59 1    
    60   25   60 1    
    61   26   61 1    
    62   26   62 1    
    63   27   63 1    
    64   27   64 1    
    65   28   65 1    
    66   28   66 1    
    67   29   67 1    
    68   29   68 1    
    69   30   69 1    
    70   30   70 1    
    71   31   71 1    
    72   31   72 1    
    73   31   73 1    
@<TRIPOS>SUBSTRUCTURE
     1 ****        2 TEMP              0 ****  ****    0 ROOT 
@<TRIPOS>NORMAL
@<TRIPOS>FF_PBC
FORCE_FIELD_SETUP_FEATURE Force Field Setup information
v1.0  0 0.000000 0.000000 0.000000 0.000000 0.000000 0.000000 NONE 0 0 0 0 1 0 0 0 0 0 0 0 0
