#	Name:			PISM00612
#	Creating user name:	baoopengkun
#	Creation time:		Mon Dec 10 10:31:36 2018

#	Modifying user name:	baoopengkun
#	Modification time:	Mon Dec 10 10:31:52 2018

@<TRIPOS>MOLECULE
PISM00612
   44    47     1     2     0
SMALL
GAST_HUCK


@<TRIPOS>ATOM
      1 C1          3.5702    9.4800   -6.5761 C.ar      1 <1>        -0.0348 
      2 C2          2.6650    9.8735   -5.5862 C.ar      1 <1>        -0.0180 
      3 C3          2.2403    8.9560   -4.6213 C.ar      1 <1>         0.0714 
      4 C4          2.7303    7.6475   -4.6401 C.ar      1 <1>        -0.0180 
      5 C5          3.6328    7.2538   -5.6324 C.ar      1 <1>        -0.0348 
      6 C6          4.0426    8.1638   -6.6131 C.ar      1 <1>         0.0068 
      7 C7          5.0086    7.7111   -7.7174 C.3       1 <1>         0.1921 
      8 C8          6.4640    7.8365   -7.2018 C.3       1 <1>         0.1073 
      9 N9          7.5085    7.4061   -8.1223 N.pl3     1 <1>        -0.1814 
     10 N10         8.8456    7.3887   -7.8580 N.2       1 <1>        -0.1908 
     11 C11         9.5502    6.9600   -8.8382 C.2       1 <1>         0.0618 
     12 N12         8.5241    6.6860   -9.8054 N.2       1 <1>        -0.2870 
     13 C13         7.3922    6.9595   -9.3365 C.2       1 <1>         0.1270 
     14 O14         4.8121    8.4250   -8.9446 O.3       1 <1>        -0.3814 
     15 C15         3.6022    7.9249   -9.5218 C.3       1 <1>         0.0672 
     16 C16         3.6254    6.4368   -9.0875 C.3       1 <1>         0.1003 
     17 O17         4.7003    6.3750   -8.1340 O.3       1 <1>        -0.3757 
     18 C18         2.2729    5.9550   -8.5019 C.3       1 <1>         0.0977 
     19 O19         2.3900    4.5827   -8.0879 O.3       1 <1>        -0.3154 
     20 C20         1.2318    4.0628   -7.5133 C.ar      1 <1>         0.0921 
     21 C21         0.9459    4.3127   -6.1687 C.ar      1 <1>        -0.0192 
     22 C22        -0.2259    3.8099   -5.5975 C.ar      1 <1>         0.0323 
     23 C23        -1.1036    3.0423   -6.3684 C.ar      1 <1>        -0.0451 
     24 C24        -0.8114    2.7811   -7.7102 C.ar      1 <1>         0.0323 
     25 C25         0.3574    3.2910   -8.2823 C.ar      1 <1>        -0.0192 
     26 Cl26        1.0954    9.4454   -3.3893 Cl        1 <1>        -0.0420 
     27 H1          3.9067   10.1993   -7.3166 H         1 <1>         0.0849 
     28 H2          2.2905   10.8920   -5.5647 H         1 <1>         0.0703 
     29 H3          2.4085    6.9393   -3.8833 H         1 <1>         0.0703 
     30 H4          4.0149    6.2372   -5.6429 H         1 <1>         0.0849 
     31 H5          6.5693    7.2328   -6.2883 H         1 <1>         0.0595 
     32 H6          6.6573    8.8907   -6.9542 H         1 <1>         0.0595 
     33 H7         10.6294    6.8372   -8.9157 H         1 <1>         0.0863 
     34 H8          6.4737    6.8247   -9.9038 H         1 <1>         0.1361 
     35 H9          3.5988    8.0671  -10.6136 H         1 <1>         0.0576 
     36 H10         2.7465    8.4662   -9.0890 H         1 <1>         0.0576 
     37 H11         3.9074    5.7789   -9.9256 H         1 <1>         0.0635 
     38 H12         1.4935    6.0415   -9.2764 H         1 <1>         0.0640 
     39 H13         1.9895    6.5855   -7.6463 H         1 <1>         0.0640 
     40 H40         1.6351    4.8962   -5.5699 H         1 <1>         0.0549 
     41 Cl41       -0.5917    4.1430   -3.9173 Cl        1 <1>        -0.0736 
     42 H42        -2.0120    2.6490   -5.9250 H         1 <1>         0.0535 
     43 Cl43       -1.9096    1.8157   -8.6746 Cl        1 <1>        -0.0736 
     44 H44         0.5891    3.0905   -9.3224 H         1 <1>         0.0549 
@<TRIPOS>BOND
     1    2    1 ar   
     2    2    3 ar   
     3    3    4 ar   
     4    4    5 ar   
     5    5    6 ar   
     6    1    6 ar   
     7    6    7 1    
     8    7    8 1    
     9    8    9 1    
    10    9   10 1    
    11   10   11 2    
    12   11   12 1    
    13   12   13 2    
    14    9   13 1    
    15    7   14 1    
    16   14   15 1    
    17   15   16 1    
    18   16   17 1    
    19    7   17 1    
    20   16   18 1    
    21   18   19 1    
    22   19   20 1    
    23   20   21 ar   
    24   21   22 ar   
    25   22   23 ar   
    26   23   24 ar   
    27   24   25 ar   
    28   20   25 ar   
    29    3   26 1    
    30    1   27 1    
    31    2   28 1    
    32    4   29 1    
    33    5   30 1    
    34    8   31 1    
    35    8   32 1    
    36   11   33 1    
    37   13   34 1    
    38   15   35 1    
    39   15   36 1    
    40   16   37 1    
    41   18   38 1    
    42   18   39 1    
    43   21   40 1    
    44   22   41 1    
    45   23   42 1    
    46   24   43 1    
    47   25   44 1    
@<TRIPOS>SUBSTRUCTURE
     1 ****        2 TEMP              0 ****  ****    0 ROOT 
@<TRIPOS>NORMAL
@<TRIPOS>FF_PBC
FORCE_FIELD_SETUP_FEATURE Force Field Setup information
v1.0  0 0.000000 0.000000 0.000000 0.000000 0.000000 0.000000 NONE 0 0 0 0 1 0 0 0 0 0 0 0 0
@<TRIPOS>RENDERING_ATTRS
ANTIALIASED_LINES 
*
