#	Name:			PISM00918.1
#	Creating user name:	baoopengkun
#	Creation time:		Fri Dec 14 10:31:16 2018

#	Modifying user name:	baoopengkun
#	Modification time:	Fri Dec 14 10:55:40 2018

@<TRIPOS>MOLECULE
PISM00918.1
   34    36     1     1     0
SMALL
GAST_HUCK


@<TRIPOS>ATOM
      1 C1         30.5686   12.5024  -14.1957 C.ar      1 <1>        -0.0145 
      2 C2         31.7170   11.6979  -14.1788 C.ar      1 <1>         0.0720 
      3 C3         31.7299   10.5024  -13.4380 C.ar      1 <1>        -0.0299 
      4 C4         30.6321   10.1085  -12.6615 C.ar      1 <1>        -0.0474 
      5 C5         29.5057   10.9290  -12.6822 C.ar      1 <1>         0.0608 
      6 C6         29.4746   12.0931  -13.4350 C.ar      1 <1>         0.0637 
      7 C7         28.1067   12.6873  -13.2090 C.2       1 <1>         0.2418 
      8 N8         27.4056   11.9013  -12.3686 N.am      1 <1>        -0.1418 
      9 C9         28.1587   10.8449  -12.0079 C.2       1 <1>         0.2355 
     10 O10        27.7210   13.7216  -13.7261 O.2       1 <1>        -0.3668 
     11 O11        27.8217    9.9466  -11.2563 O.2       1 <1>        -0.3726 
     12 C12        26.0621   12.1749  -11.8907 C.3       1 <1>         0.2214 
     13 O13        26.1181   13.2907  -10.9798 O.3       1 <1>        -0.2348 
     14 C14        25.4083   14.2511  -11.5597 C.2       1 <1>         0.2491 
     15 C15        24.8059   13.8997  -12.8410 C.2       1 <1>         0.0288 
     16 C16        25.1898   12.6392  -13.0326 C.2       1 <1>        -0.0059 
     17 C17        23.9446   14.7546  -13.7293 C.3       1 <1>        -0.0323 
     18 O18        25.2660   15.3470  -11.0449 O.2       1 <1>        -0.3691 
     19 N19        32.8018   12.0880  -14.8935 N.pl3     1 <1>        -0.2361 
     20 C20        34.0096   12.0477  -14.3949 C.2       1 <1>         0.1988 
     21 O21        34.2496   11.6728  -13.2594 O.2       1 <1>        -0.3792 
     22 C22        35.1659   12.4977  -15.2517 C.3       1 <1>         0.0314 
     23 H1         30.5237   13.4185  -14.7744 H         1 <1>         0.0597 
     24 H2         32.6015    9.8568  -13.4671 H         1 <1>         0.0574 
     25 H3         30.6487    9.2009  -12.0669 H         1 <1>         0.0651 
     26 H4         25.6136   11.3023  -11.3869 H         1 <1>         0.1152 
     27 H5         24.9230   12.0295  -13.8948 H         1 <1>         0.0702 
     28 H6         24.5410   15.1065  -14.5841 H         1 <1>         0.0347 
     29 H7         23.5697   15.6255  -13.1711 H         1 <1>         0.0347 
     30 H8         23.0877   14.1730  -14.1009 H         1 <1>         0.0347 
     31 H9         32.6603   12.4498  -15.8485 H         1 <1>         0.2126 
     32 H10        35.0446   13.5603  -15.5084 H         1 <1>         0.0475 
     33 H11        35.2004   11.9014  -16.1753 H         1 <1>         0.0475 
     34 H12        36.1189   12.3711  -14.7155 H         1 <1>         0.0475 
@<TRIPOS>BOND
     1    2    1 ar   
     2    2    3 ar   
     3    3    4 ar   
     4    4    5 ar   
     5    6    5 ar   
     6    1    6 ar   
     7    6    7 1    
     8    7    8 am   
     9    9    8 am   
    10    5    9 1    
    11    7   10 2    
    12    9   11 2    
    13    8   12 1    
    14   12   13 1    
    15   13   14 1    
    16   15   14 1    
    17   16   15 2    
    18   12   16 1    
    19   15   17 1    
    20   14   18 2    
    21    2   19 1    
    22   19   20 1    
    23   20   21 2    
    24   20   22 1    
    25    1   23 1    
    26    3   24 1    
    27    4   25 1    
    28   12   26 1    
    29   16   27 1    
    30   17   28 1    
    31   17   29 1    
    32   17   30 1    
    33   19   31 1    
    34   22   32 1    
    35   22   33 1    
    36   22   34 1    
@<TRIPOS>SUBSTRUCTURE
     1 ****        2 TEMP              0 ****  ****    0 ROOT 
@<TRIPOS>NORMAL
@<TRIPOS>FF_PBC
FORCE_FIELD_SETUP_FEATURE Force Field Setup information
v1.0  0 0.000000 0.000000 0.000000 0.000000 0.000000 0.000000 NONE 0 0 0 0 1 0 0 0 0 0 0 0 0
