#	Name:			PISM00784
#	Creating user name:	baoopengkun
#	Creation time:		Fri Nov 30 22:26:44 2018

#	Modifying user name:	baoopengkun
#	Modification time:	Fri Nov 30 22:27:28 2018

@<TRIPOS>MOLECULE
PISM00784
   33    36     1     2     0
SMALL
GAST_HUCK


@<TRIPOS>ATOM
      1 C1        -26.8989   17.6543   -7.4069 C.2       1 <1>        -0.0924 
      2 C2        -26.6677   18.9602   -7.2685 C.2       1 <1>        -0.0916 
      3 C3        -27.8079   19.5469   -6.4790 C.3       1 <1>         0.0005 
      4 C4        -28.0752   18.3453   -5.5457 C.3       1 <1>        -0.0286 
      5 C5        -28.1979   17.3405   -6.7126 C.3       1 <1>        -0.0026 
      6 C6        -29.0609   19.5094   -7.3933 C.3       1 <1>         0.0626 
      7 C7        -29.3356   17.9821   -7.5504 C.3       1 <1>         0.0532 
      8 C8        -28.7997   19.9666   -8.8026 C.2       1 <1>         0.1099 
      9 C9        -28.8714   19.0203   -9.7453 C.2       1 <1>        -0.0074 
     10 C10       -29.2059   17.7840   -9.0346 C.2       1 <1>         0.0877 
     11 O11       -29.3656   16.7086   -9.5879 O.2       1 <1>        -0.4159 
     12 O12       -28.5062   21.2638   -9.0062 O.3       1 <1>        -0.2475 
     13 C13       -28.3553   21.6948  -10.3717 C.3       1 <1>         0.2446 
     14 C14       -29.6842   21.7297  -11.0971 C.2       1 <1>        -0.0002 
     15 C15       -30.0043   22.9769  -11.4381 C.2       1 <1>         0.0293 
     16 C16       -28.8863   23.7658  -10.9384 C.2       1 <1>         0.2496 
     17 O17       -27.9286   23.0742  -10.3323 O.3       1 <1>        -0.2297 
     18 O18       -28.8286   24.9776  -11.0664 O.2       1 <1>        -0.3691 
     19 C19       -31.2250   23.4722  -12.1639 C.3       1 <1>        -0.0323 
     20 H1        -26.2679   16.9424   -7.9378 H         1 <1>         0.0454 
     21 H2        -25.8141   19.5080   -7.6659 H         1 <1>         0.0455 
     22 H3        -27.5929   20.5053   -5.9809 H         1 <1>         0.0462 
     23 H4        -29.0023   18.4472   -4.9570 H         1 <1>         0.0313 
     24 H5        -27.2356   18.1252   -4.8636 H         1 <1>         0.0313 
     25 H6        -28.3369   16.2863   -6.4256 H         1 <1>         0.0453 
     26 H7        -29.9151   20.0419   -6.9440 H         1 <1>         0.0625 
     27 H8        -30.3351   17.6964   -7.1826 H         1 <1>         0.0565 
     28 H9        -28.7239   19.0651  -10.8227 H         1 <1>         0.0187 
     29 H10       -27.5795   21.1359  -10.9184 H         1 <1>         0.1219 
     30 H11       -30.3113   20.8676  -11.3188 H         1 <1>         0.0707 
     31 H12       -31.9259   22.6479  -12.3654 H         1 <1>         0.0347 
     32 H13       -30.9224   23.9261  -13.1191 H         1 <1>         0.0347 
     33 H14       -31.7330   24.2310  -11.5504 H         1 <1>         0.0347 
@<TRIPOS>BOND
     1    2    1 2    
     2    2    3 1    
     3    3    4 1    
     4    4    5 1    
     5    1    5 1    
     6    3    6 1    
     7    6    7 1    
     8    5    7 1    
     9    6    8 1    
    10    8    9 2    
    11    9   10 1    
    12    7   10 1    
    13   10   11 2    
    14    8   12 1    
    15   12   13 1    
    16   13   14 1    
    17   14   15 2    
    18   15   16 1    
    19   16   17 1    
    20   13   17 1    
    21   16   18 2    
    22   15   19 1    
    23    1   20 1    
    24    2   21 1    
    25    3   22 1    
    26    4   23 1    
    27    4   24 1    
    28    5   25 1    
    29    6   26 1    
    30    7   27 1    
    31    9   28 1    
    32   13   29 1    
    33   14   30 1    
    34   19   31 1    
    35   19   32 1    
    36   19   33 1    
@<TRIPOS>SUBSTRUCTURE
     1 ****        2 TEMP              0 ****  ****    0 ROOT 
@<TRIPOS>NORMAL
@<TRIPOS>FF_PBC
FORCE_FIELD_SETUP_FEATURE Force Field Setup information
v1.0  0 0.000000 0.000000 0.000000 0.000000 0.000000 0.000000 NONE 0 0 0 0 0 0 0 0 0 0 0 0 0
@<TRIPOS>RENDERING_ATTRS
ANTIALIASED_LINES 
*
