#	Name:			PISM00963.1
#	Creating user name:	baoopengkun
#	Creation time:		Thu Dec 13 10:35:31 2018

#	Modifying user name:	baoopengkun
#	Modification time:	Thu Dec 13 11:00:47 2018

@<TRIPOS>MOLECULE
PISM00963.1
   45    47     1     1     0
SMALL
GAST_HUCK


@<TRIPOS>ATOM
      1 C1         -7.0421   11.8525   -7.7880 C.ar      1 <1>         0.0014 
      2 C2         -6.3783   11.3720   -6.6595 C.ar      1 <1>         0.1287 
      3 C3         -7.0895   10.6462   -5.7042 C.ar      1 <1>         0.0014 
      4 C4         -8.4525   10.3899   -5.8839 C.ar      1 <1>        -0.0438 
      5 C5         -9.1331   10.8345   -7.0294 C.ar      1 <1>        -0.0343 
      6 C6         -8.4030   11.5863   -7.9638 C.ar      1 <1>        -0.0438 
      7 C7        -10.6383   10.5457   -7.3048 C.3       1 <1>         0.0750 
      8 O8        -11.3211   11.8145   -7.3274 O.3       1 <1>        -0.4296 
      9 C9        -10.8167    9.7690   -8.6533 C.3       1 <1>        -0.0421 
     10 C10       -11.3304    9.7481   -6.1553 C.3       1 <1>         0.0760 
     11 N11       -12.7331    9.4441   -6.4064 N.pl3     1 <1>        -0.1855 
     12 N12       -13.7933   10.2754   -6.2001 N.2       1 <1>        -0.1910 
     13 C13       -14.9221    9.7313   -6.4658 C.2       1 <1>         0.0618 
     14 N14       -14.4998    8.4173   -6.8647 N.2       1 <1>        -0.2870 
     15 C15       -13.2506    8.3196   -6.8008 C.2       1 <1>         0.1267 
     16 C16       -12.1061   10.1503   -9.4344 C.3       1 <1>        -0.0254 
     17 C17       -12.3148    9.1739  -10.6018 C.ar      1 <1>        -0.0435 
     18 C18       -11.5559    9.3099  -11.7699 C.ar      1 <1>        -0.0597 
     19 C19       -11.7331    8.4226  -12.8355 C.ar      1 <1>        -0.0546 
     20 C20       -12.6737    7.3940  -12.7398 C.ar      1 <1>         0.0330 
     21 C21       -13.4367    7.2557  -11.5777 C.ar      1 <1>        -0.0546 
     22 C22       -13.2584    8.1436  -10.5127 C.ar      1 <1>        -0.0597 
     23 Cl23      -12.8960    6.2805  -14.0739 Cl        1 <1>        -0.0771 
     24 O24        -5.0166   11.6171   -6.4856 O.3       1 <1>        -0.2963 
     25 C25        -4.1641   10.6456   -7.1128 C.3       1 <1>         0.0687 
     26 H1         -6.4953   12.4326   -8.5242 H         1 <1>         0.0651 
     27 H2         -6.5743   10.2842   -4.8203 H         1 <1>         0.0651 
     28 H3         -8.9520    9.8394   -5.0978 H         1 <1>         0.0824 
     29 H4         -8.8820   11.9835   -8.8523 H         1 <1>         0.0824 
     30 H5        -11.0283   12.4213   -7.9960 H         1 <1>         0.1932 
     31 H6        -10.8198    8.6860   -8.4528 H         1 <1>         0.0199 
     32 H7         -9.9745    9.9476   -9.3378 H         1 <1>         0.0199 
     33 H8        -11.3050   10.3477   -5.2323 H         1 <1>         0.0550 
     34 H9        -10.8115    8.7936   -5.9774 H         1 <1>         0.0550 
     35 H10       -15.9247   10.1515   -6.4033 H         1 <1>         0.0863 
     36 H11       -12.7033    7.4102   -7.0456 H         1 <1>         0.1361 
     37 H12       -12.0198   11.1676   -9.8471 H         1 <1>         0.0419 
     38 H13       -12.9891   10.1460   -8.7815 H         1 <1>         0.0419 
     39 H14       -10.8237   10.1068  -11.8537 H         1 <1>         0.0557 
     40 H15       -11.1413    8.5306  -13.7386 H         1 <1>         0.0606 
     41 H16       -14.1683    6.4576  -11.5041 H         1 <1>         0.0606 
     42 H17       -13.8590    8.0257   -9.6167 H         1 <1>         0.0557 
     43 H18        -4.3429    9.6418   -6.6965 H         1 <1>         0.0597 
     44 H19        -3.1186   10.9270   -6.9179 H         1 <1>         0.0597 
     45 H20        -4.3262   10.6235   -8.2018 H         1 <1>         0.0597 
@<TRIPOS>BOND
     1    2    1 ar   
     2    2    3 ar   
     3    3    4 ar   
     4    4    5 ar   
     5    5    6 ar   
     6    1    6 ar   
     7    5    7 1    
     8    7    8 1    
     9    7    9 1    
    10    7   10 1    
    11   10   11 1    
    12   11   12 1    
    13   12   13 2    
    14   13   14 1    
    15   14   15 2    
    16   11   15 1    
    17    9   16 1    
    18   16   17 1    
    19   17   18 ar   
    20   18   19 ar   
    21   19   20 ar   
    22   20   21 ar   
    23   21   22 ar   
    24   17   22 ar   
    25   20   23 1    
    26    2   24 1    
    27   24   25 1    
    28    1   26 1    
    29    3   27 1    
    30    4   28 1    
    31    6   29 1    
    32    8   30 1    
    33    9   31 1    
    34    9   32 1    
    35   10   33 1    
    36   10   34 1    
    37   13   35 1    
    38   15   36 1    
    39   16   37 1    
    40   16   38 1    
    41   18   39 1    
    42   19   40 1    
    43   21   41 1    
    44   22   42 1    
    45   25   43 1    
    46   25   44 1    
    47   25   45 1    
@<TRIPOS>SUBSTRUCTURE
     1 ****        2 TEMP              0 ****  ****    0 ROOT 
@<TRIPOS>NORMAL
@<TRIPOS>FF_PBC
FORCE_FIELD_SETUP_FEATURE Force Field Setup information
v1.0  0 0.000000 0.000000 0.000000 0.000000 0.000000 0.000000 NONE 0 0 0 0 1 0 0 0 0 0 0 0 0
