#	Name:			PISM00168
#	Creating user name:	14062
#	Creation time:		Sun Mar 31 14:13:48 2019

#	Modifying user name:	14062
#	Modification time:	Sun Mar 31 14:19:18 2019

@<TRIPOS>MOLECULE
PISM00168
   34    36     1     1     0
SMALL
GAST_HUCK


@<TRIPOS>ATOM
      1 C1         -4.5469    6.2928   -7.2541 C.3       1 CN          0.1136 
      2 C2         -3.3912    7.3002   -7.4422 C.3       1 CN          0.1146 
      3 C3         -2.8939    7.4391   -5.9836 C.3       1 CN          0.1391 
      4 C4         -3.1883    6.0403   -5.3799 C.3       1 CN          0.2017 
      5 O5         -3.9076    5.3280   -6.4032 O.3       1 CN         -0.3363 
      6 N6         -1.9627    5.3164   -5.0723 N.pl3     1 CN         -0.2018 
      7 C7         -1.3562    4.5072   -5.9052 C.2       1 CN          0.0822 
      8 C8         -0.2722    3.9914   -5.3069 C.2       1 CN          0.1081 
      9 C9         -0.2216    4.5594   -3.9131 C.ar      1 CN          0.0772 
     10 C10        -1.3369    5.3748   -3.8787 C.ar      1 CN          0.1521 
     11 N11        -1.6405    6.0695   -2.7681 N.ar      1 CN         -0.2731 
     12 C12        -0.8368    5.9445   -1.6879 C.ar      1 CN          0.0522 
     13 N13         0.2630    5.1529   -1.7083 N.ar      1 CN         -0.2714 
     14 C14         0.6118    4.4412   -2.8018 C.ar      1 CN          0.1201 
     15 N15         1.7166    3.6632   -2.7865 N.pl3     1 CN         -0.3158 
     16 C           0.6621    3.0669   -5.8920 C.1       1 CN          0.0623 
     17 N           1.4161    2.3235   -6.3584 N.1       1 CN         -0.3628 
     18 O18        -3.6710    8.4365   -5.2918 O.3       1 CN         -0.3835 
     19 O19        -3.7987    8.5765   -7.9716 O.3       1 CN         -0.3864 
     20 C20        -5.0487    5.6566   -8.5781 C.3       1 CN          0.0730 
     21 O21        -6.0555    4.6550   -8.3434 O.3       1 CN         -0.3924 
     22 H1         -5.3876    6.7781   -6.7277 H         1 CN          0.0647 
     23 H2         -2.5934    6.8427   -8.0555 H         1 CN          0.0648 
     24 H3         -1.8209    7.6943   -5.9333 H         1 CN          0.0677 
     25 H4         -3.8247    6.1410   -4.4838 H         1 CN          0.1005 
     26 H5         -1.6618    4.2746   -6.9255 H         1 CN          0.1205 
     27 H6         -1.0772    6.4891   -0.7820 H         1 CN          0.0985 
     28 H7          2.2792    3.5990   -1.9267 H         1 CN          0.1821 
     29 H8          2.0090    3.1362   -3.6217 H         1 CN          0.1821 
     30 H9         -3.6043    9.2864   -5.7187 H         1 CN          0.2101 
     31 H10        -4.1246    8.5247   -8.8645 H         1 CN          0.2100 
     32 H11        -4.2061    5.1597   -9.0818 H         1 CN          0.0584 
     33 H12        -5.4480    6.4323   -9.2519 H         1 CN          0.0584 
     34 H13        -6.8358    4.9974   -7.9178 H         1 CN          0.2095 
@<TRIPOS>BOND
     1    1    2 1    
     2    3    2 1    
     3    4    3 1    
     4    4    5 1    
     5    5    1 1    
     6    6    4 1    
     7    7    6 1    
     8    8    7 2    
     9    8    9 1    
    10    9   10 ar   
    11   10    6 1    
    12   10   11 ar   
    13   11   12 ar   
    14   13   12 ar   
    15   14   13 ar   
    16    9   14 ar   
    17   14   15 1    
    18   16   17 3    
    19   16    8 1    
    20    3   18 1    
    21    2   19 1    
    22    1   20 1    
    23   20   21 1    
    24    1   22 1    
    25    2   23 1    
    26    3   24 1    
    27    4   25 1    
    28    7   26 1    
    29   12   27 1    
    30   15   28 1    
    31   15   29 1    
    32   18   30 1    
    33   19   31 1    
    34   20   32 1    
    35   20   33 1    
    36   21   34 1    
@<TRIPOS>SUBSTRUCTURE
     1 CN         16 PERM              0 ****  ****    0 ROOT 
@<TRIPOS>NORMAL
@<TRIPOS>FF_PBC
FORCE_FIELD_SETUP_FEATURE Force Field Setup information
v1.0  0 0.000000 0.000000 0.000000 0.000000 0.000000 0.000000 NONE 0 0 0 0 1 0 0 0 0 0 0 0 0
