#	Name:			PISM00793.1
#	Creating user name:	baoopengkun
#	Creation time:		Tue Jan 08 16:07:34 2019

#	Modifying user name:	baoopengkun
#	Modification time:	Tue Jan 08 16:07:59 2019

@<TRIPOS>MOLECULE
PISM00793.1
   61    66     1     1     0
SMALL
GAST_HUCK


@<TRIPOS>ATOM
      1 C1         21.9123   11.4294  -28.8815 C.ar      1 <1>        -0.0280 
      2 C2         19.7397   12.2214  -27.9376 C.ar      1 <1>        -0.0662 
      3 C3         18.3651   12.4803  -28.0263 C.ar      1 <1>        -0.0401 
      4 C4         17.7310   12.1685  -29.2293 C.ar      1 <1>         0.0672 
      5 C5         18.4461   11.6246  -30.2878 C.ar      1 <1>        -0.0083 
      6 C6         19.8124   11.3611  -30.2207 C.ar      1 <1>        -0.0622 
      7 C7         17.3767   11.4641  -31.3346 C.2       1 <1>        -0.0151 
      8 C8         16.2474   11.9036  -30.7912 C.2       1 <1>         0.1044 
      9 N9         16.4276   12.3199  -29.5659 N.pl3     1 <1>        -0.2670 
     10 C10        15.3877   12.8613  -28.6997 C.3       1 <1>         0.0370 
     11 C11        15.1681   11.7702  -31.7639 C.2       1 <1>         0.1400 
     12 O12        13.9941   12.0796  -31.6404 O.2       1 <1>        -0.4040 
     13 C13        15.8060   11.1700  -32.9503 C.2       1 <1>         0.0306 
     14 C14        17.3001   10.9642  -32.7509 C.3       1 <1>         0.0055 
     15 C15        15.1451   10.8436  -34.0654 C.2       1 <1>         0.0832 
     16 O16        15.8115   10.2940  -35.0909 O.3       1 <1>        -0.2667 
     17 C17        14.9969   10.0376  -36.2482 C.3       1 <1>         0.2401 
     18 C18        14.4287   11.3101  -36.8305 C.2       1 <1>        -0.0007 
     19 C19        13.0996   11.2407  -36.8808 C.2       1 <1>         0.0293 
     20 C20        12.8010    9.9266  -36.3203 C.2       1 <1>         0.2496 
     21 O21        13.8541    9.2179  -35.9296 O.3       1 <1>        -0.2302 
     22 C22        12.1295   12.2769  -37.3785 C.3       1 <1>        -0.0323 
     23 O23        11.6631    9.5043  -36.2108 O.2       1 <1>        -0.3691 
     24 C24        23.8066    9.9121  -28.9717 C.ar      1 <1>        -0.0256 
     25 C25        24.6654   10.9651  -28.6280 C.ar      1 <1>        -0.0291 
     26 C26        22.7710   12.4784  -28.5426 C.ar      1 <1>        -0.0592 
     27 C27        24.1427   12.2458  -28.4130 C.ar      1 <1>        -0.0600 
     28 C28        22.4321   10.1491  -29.0929 C.ar      1 <1>        -0.0533 
     29 C29        26.0396   10.7280  -28.5022 C.ar      1 <1>        -0.0293 
     30 C30        26.5554    9.4463  -28.7075 C.ar      1 <1>         0.0917 
     31 C31        25.7016    8.3996  -29.0601 C.ar      1 <1>        -0.0278 
     32 C32        24.3298    8.6317  -29.1906 C.ar      1 <1>        -0.0568 
     33 O33        27.9219    9.2095  -28.5611 O.3       1 <1>        -0.3206 
     34 C34        28.3279    8.9973  -27.1996 C.3       1 <1>         0.0597 
     35 H1         20.2601   12.4469  -27.0121 H         1 <1>         0.0558 
     36 C36        20.4552   11.6759  -29.0161 C.ar      1 <1>        -0.0336 
     37 H2         17.8174   12.9053  -27.1926 H         1 <1>         0.0550 
     38 H3         20.3450   10.9358  -31.0640 H         1 <1>         0.0570 
     39 H4         14.4078   12.8796  -29.2012 H         1 <1>         0.0555 
     40 H5         15.6505   13.8901  -28.4106 H         1 <1>         0.0555 
     41 H6         15.3044   12.2410  -27.7946 H         1 <1>         0.0555 
     42 C42        18.1612   11.8466  -33.6866 C.3       1 <1>        -0.0509 
     43 H8         17.5752    9.8989  -32.8073 H         1 <1>         0.0507 
     44 H9         14.0716   11.0471  -34.0749 H         1 <1>         0.1132 
     45 H10        15.6111    9.5268  -37.0071 H         1 <1>         0.1214 
     46 H11        15.0269   12.1589  -37.1598 H         1 <1>         0.0706 
     47 H12        12.0064   12.1704  -38.4663 H         1 <1>         0.0347 
     48 H13        12.5004   13.2883  -37.1541 H         1 <1>         0.0347 
     49 H14        11.1518   12.1412  -36.8922 H         1 <1>         0.0347 
     50 H15        22.3733   13.4756  -28.3818 H         1 <1>         0.0606 
     51 H16        24.7964   13.0701  -28.1446 H         1 <1>         0.0591 
     52 H17        21.7566    9.3395  -29.3502 H         1 <1>         0.0604 
     53 H18        26.7201   11.5327  -28.2451 H         1 <1>         0.0498 
     54 H19        26.1101    7.4090  -29.2304 H         1 <1>         0.0589 
     55 H20        23.6768    7.8082  -29.4632 H         1 <1>         0.0615 
     56 H21        29.4123    8.8133  -27.1872 H         1 <1>         0.0578 
     57 H22        27.8155    8.1206  -26.7735 H         1 <1>         0.0578 
     58 H23        28.1130    9.8820  -26.5801 H         1 <1>         0.0578 
     59 H7         19.2218   11.7682  -33.4026 H         1 <1>         0.0265 
     60 H24        17.8506   12.9002  -33.6094 H         1 <1>         0.0265 
     61 H25        18.0531   11.5211  -34.7320 H         1 <1>         0.0265 
@<TRIPOS>BOND
     1    1   36 1    
     2    3    2 ar   
     3    4    3 ar   
     4    5    4 ar   
     5    6    5 ar   
     6   24   28 ar   
     7    5    7 1    
     8    7    8 2    
     9    8    9 1    
    10    4    9 1    
    11    9   10 1    
    12    8   11 1    
    13   11   12 2    
    14   13   11 1    
    15   14   13 1    
    16    7   14 1    
    17   13   15 2    
    18   15   16 1    
    19   16   17 1    
    20   17   18 1    
    21   18   19 2    
    22   20   19 1    
    23   21   20 1    
    24   17   21 1    
    25   19   22 1    
    26   20   23 2    
    27   36    6 ar   
    28   25   24 ar   
    29   26    1 ar   
    30   27   26 ar   
    31   25   27 ar   
    32    1   28 ar   
    33   25   29 ar   
    34   29   30 ar   
    35   30   31 ar   
    36   31   32 ar   
    37   24   32 ar   
    38   30   33 1    
    39   33   34 1    
    40    2   35 1    
    41    2   36 ar   
    42    3   37 1    
    43    6   38 1    
    44   10   39 1    
    45   10   40 1    
    46   10   41 1    
    47   14   42 1    
    48   14   43 1    
    49   15   44 1    
    50   17   45 1    
    51   18   46 1    
    52   22   47 1    
    53   22   48 1    
    54   22   49 1    
    55   26   50 1    
    56   27   51 1    
    57   28   52 1    
    58   29   53 1    
    59   31   54 1    
    60   32   55 1    
    61   34   56 1    
    62   34   57 1    
    63   34   58 1    
    64   42   59 1    
    65   42   60 1    
    66   42   61 1    
@<TRIPOS>SUBSTRUCTURE
     1 ****        2 TEMP              0 ****  ****    0 ROOT 
@<TRIPOS>NORMAL
@<TRIPOS>FF_PBC
FORCE_FIELD_SETUP_FEATURE Force Field Setup information
v1.0  0 0.000000 0.000000 0.000000 0.000000 0.000000 0.000000 NONE 0 0 0 0 1 0 0 0 0 0 0 0 0
