#	Name:			PISM00384
#	Creating user name:	baoopengkun
#	Creation time:		Sun Mar 31 22:04:51 2019

#	Modifying user name:	baoopengkun
#	Modification time:	Sun Mar 31 22:11:01 2019

@<TRIPOS>MOLECULE
PISM00384
  103   104     1     1     0
SMALL
GAST_HUCK


@<TRIPOS>ATOM
      1 C1          9.7425    0.3047   -4.2707 C.3       1 <1>        -0.0439 
      2 C2         10.9094    0.8136   -3.3774 C.3       1 <1>         0.0170 
      3 C3         11.1354    2.2623   -3.6980 C.2       1 <1>         0.1401 
      4 C4         11.1882    2.6415   -5.1577 C.ar      1 <1>         0.0312 
      5 C5         10.9450    1.6548   -6.1198 C.ar      1 <1>        -0.0611 
      6 C6         10.2222    0.3405   -5.7624 C.3       1 <1>         0.0299 
      7 C7          9.3867   -1.1511   -3.8415 C.3       1 <1>        -0.0709 
      8 C8          8.4811    1.1969   -4.0457 C.3       1 <1>        -0.0709 
      9 O9         11.2654    3.0999   -2.8178 O.2       1 <1>        -0.3711 
     10 C10        11.3547    1.8890   -7.4376 C.ar      1 <1>        -0.0576 
     11 C11        11.8319    3.1501   -7.7992 C.ar      1 <1>        -0.0074 
     12 C12        11.6674    4.2181   -6.9160 C.ar      1 <1>         0.1212 
     13 C13        11.4665    3.9525   -5.5601 C.ar      1 <1>         0.0066 
     14 O14        11.1301   -0.7602   -5.9549 O.3       1 <1>        -0.4653 
     15 C15         9.0339    0.2818   -6.7005 C.2       1 <1>        -0.0894 
     16 C16         8.5676   -0.8214   -7.2996 C.2       1 <1>        -0.0172 
     17 C17         7.3985   -0.7386   -8.2052 C.2       1 <1>         0.0244 
     18 C18         7.4064    0.3307   -9.2776 C.3       1 <1>        -0.0129 
     19 C19         6.3483   -1.5683   -8.1025 C.2       1 <1>         0.0649 
     20 C20         6.1822   -2.6448   -7.0977 C.2       1 <1>         0.2748 
     21 O21         7.0043   -2.8042   -6.2137 O.2       1 <1>        -0.3457 
     22 O22         5.1320   -3.4720   -7.1179 O.3       1 <1>        -0.2917 
     23 O23        11.6922    5.5305   -7.3913 O.3       1 <1>        -0.3008 
     24 C24        10.4739    5.9694   -8.0373 C.3       1 <1>         0.0765 
     25 C25        10.0911    5.0910   -9.2624 C.3       1 <1>        -0.0240 
     26 C26         8.9173    5.6431  -10.1172 C.3       1 <1>        -0.0505 
     27 C27         8.5832    4.6304  -11.2480 C.3       1 <1>        -0.0530 
     28 C28         7.4739    5.1231  -12.2183 C.3       1 <1>        -0.0531 
     29 C29         7.1963    4.0250  -13.2841 C.3       1 <1>        -0.0531 
     30 C30         6.1574    4.4411  -14.3609 C.3       1 <1>        -0.0531 
     31 C31         5.9448    3.2711  -15.3652 C.3       1 <1>        -0.0531 
     32 C32         4.9764    3.6509  -16.5182 C.3       1 <1>        -0.0531 
     33 C33         4.7535    2.4586  -17.4911 C.3       1 <1>        -0.0531 
     34 C34         3.7648    2.8248  -18.6328 C.3       1 <1>        -0.0531 
     35 C35         3.5378    1.6151  -19.5799 C.3       1 <1>        -0.0531 
     36 C36         2.6038    1.9590  -20.7719 C.3       1 <1>        -0.0531 
     37 C37         2.3651    0.7034  -21.6545 C.3       1 <1>        -0.0531 
     38 C38         1.4328    1.0095  -22.8572 C.3       1 <1>        -0.0531 
     39 C39         1.1867   -0.2690  -23.7036 C.3       1 <1>        -0.0531 
     40 H1         11.8338    0.2584   -3.6002 H         1 <1>         0.0477 
     41 H2         10.6808    0.6912   -2.3080 H         1 <1>         0.0477 
     42 H3         10.2783   -1.7965   -3.8384 H         1 <1>         0.0222 
     43 H4          8.6488   -1.5866   -4.5300 H         1 <1>         0.0222 
     44 H5          8.9559   -1.1635   -2.8281 H         1 <1>         0.0222 
     45 H6          7.5858    0.7397   -4.4955 H         1 <1>         0.0222 
     46 H7          8.6068    2.1980   -4.4835 H         1 <1>         0.0222 
     47 H8          8.2904    1.3179   -2.9683 H         1 <1>         0.0222 
     48 H9         11.2959    1.1108   -8.1902 H         1 <1>         0.0743 
     49 H10        12.3037    3.3025   -8.7632 H         1 <1>         0.0645 
     50 H11        11.5236    4.7561   -4.8332 H         1 <1>         0.0670 
     51 H12        11.4940   -0.8245   -6.8301 H         1 <1>         0.1810 
     52 H13         8.5157    1.2246   -6.8849 H         1 <1>         0.0514 
     53 H14         9.0490   -1.7833   -7.1177 H         1 <1>         0.1108 
     54 H15         7.0150   -0.0572  -10.2310 H         1 <1>         0.0430 
     55 H16         8.4273    0.7008   -9.4618 H         1 <1>         0.0430 
     56 H17         6.7799    1.1773   -8.9570 H         1 <1>         0.0430 
     57 H18         5.5333   -1.4362   -8.8125 H         1 <1>         0.0983 
     58 H19         4.5103   -3.3245   -7.8194 H         1 <1>         0.2518 
     59 H20        10.6488    7.0036   -8.3750 H         1 <1>         0.0626 
     60 H21         9.6445    5.9809   -7.3106 H         1 <1>         0.0626 
     61 H22         9.7881    4.0918   -8.9119 H         1 <1>         0.0292 
     62 H23        10.9796    4.9960   -9.9076 H         1 <1>         0.0292 
     63 H24         9.2022    6.6137  -10.5532 H         1 <1>         0.0266 
     64 H25         8.0298    5.7912   -9.4813 H         1 <1>         0.0266 
     65 H26         8.2581    3.6795  -10.7945 H         1 <1>         0.0265 
     66 H27         9.4965    4.4338  -11.8331 H         1 <1>         0.0265 
     67 H28         7.8032    6.0514  -12.7147 H         1 <1>         0.0265 
     68 H29         6.5505    5.3389  -11.6558 H         1 <1>         0.0265 
     69 H30         6.8351    3.1167  -12.7734 H         1 <1>         0.0265 
     70 H31         8.1427    3.7794  -13.7950 H         1 <1>         0.0265 
     71 H32         6.5224    5.3314  -14.8985 H         1 <1>         0.0265 
     72 H33         5.1998    4.6964  -13.8777 H         1 <1>         0.0265 
     73 H34         5.5398    2.4016  -14.8199 H         1 <1>         0.0265 
     74 H35         6.9159    2.9804  -15.7998 H         1 <1>         0.0265 
     75 H36         5.3953    4.5033  -17.0784 H         1 <1>         0.0265 
     76 H37         4.0091    3.9586  -16.0885 H         1 <1>         0.0265 
     77 H38         4.3536    1.6004  -16.9270 H         1 <1>         0.0265 
     78 H39         5.7199    2.1610  -17.9294 H         1 <1>         0.0265 
     79 H40         4.1677    3.6746  -19.2073 H         1 <1>         0.0265 
     80 H41         2.8005    3.1308  -18.1951 H         1 <1>         0.0265 
     81 H42         3.0931    0.7894  -19.0015 H         1 <1>         0.0265 
     82 H43         4.5087    1.2748  -19.9743 H         1 <1>         0.0265 
     83 H44         3.0608    2.7547  -21.3824 H         1 <1>         0.0265 
     84 H45         1.6365    2.3268  -20.3933 H         1 <1>         0.0265 
     85 H46         1.9134   -0.0929  -21.0397 H         1 <1>         0.0265 
     86 H47         3.3344    0.3378  -22.0338 H         1 <1>         0.0265 
     87 H48         1.8996    1.7847  -23.4873 H         1 <1>         0.0265 
     88 H49         0.4793    1.3986  -22.4690 H         1 <1>         0.0265 
     89 H50         2.1677   -0.6951  -23.9714 H         1 <1>         0.0265 
     90 C90         0.4055    0.0108  -25.0196 C.3       1 <1>        -0.0531 
     91 H52         0.6514   -1.0174  -23.0984 H         1 <1>         0.0265 
     92 H51         0.9748    0.7370  -25.6262 H         1 <1>         0.0265 
     93 C93        -1.0398    0.5444  -24.8018 C.3       1 <1>        -0.0533 
     94 H54         0.3569   -0.9363  -25.5779 H         1 <1>         0.0265 
     95 H53        -0.9992    1.5066  -24.2664 H         1 <1>         0.0265 
     96 H55        -1.6083   -0.1648  -24.1789 H         1 <1>         0.0265 
     97 C97        -1.8026    0.7912  -26.1361 C.3       1 <1>        -0.0559 
     98 H56        -1.2190    1.4596  -26.7918 H         1 <1>         0.0263 
     99 H57        -2.7547    1.2982  -25.9034 H         1 <1>         0.0263 
    100 C100       -2.1358   -0.5182  -26.9011 C.3       1 <1>        -0.0653 
    101 H58        -1.2320   -0.9867  -27.3194 H         1 <1>         0.0230 
    102 H59        -2.8144   -0.2921  -27.7381 H         1 <1>         0.0230 
    103 H60        -2.6336   -1.2386  -26.2327 H         1 <1>         0.0230 
@<TRIPOS>BOND
     1    2    1 1    
     2    2    3 1    
     3    3    4 1    
     4    4    5 ar   
     5    5    6 1    
     6    1    6 1    
     7    1    7 1    
     8    1    8 1    
     9    3    9 2    
    10    5   10 ar   
    11   10   11 ar   
    12   11   12 ar   
    13   12   13 ar   
    14    4   13 ar   
    15    6   14 1    
    16    6   15 1    
    17   15   16 2    
    18   16   17 1    
    19   17   18 1    
    20   17   19 2    
    21   19   20 1    
    22   20   21 2    
    23   20   22 1    
    24   12   23 1    
    25   23   24 1    
    26   24   25 1    
    27   25   26 1    
    28   26   27 1    
    29   27   28 1    
    30   28   29 1    
    31   29   30 1    
    32   30   31 1    
    33   31   32 1    
    34   32   33 1    
    35   33   34 1    
    36   34   35 1    
    37   35   36 1    
    38   36   37 1    
    39   37   38 1    
    40   38   39 1    
    41    2   40 1    
    42    2   41 1    
    43    7   42 1    
    44    7   43 1    
    45    7   44 1    
    46    8   45 1    
    47    8   46 1    
    48    8   47 1    
    49   10   48 1    
    50   11   49 1    
    51   13   50 1    
    52   14   51 1    
    53   15   52 1    
    54   16   53 1    
    55   18   54 1    
    56   18   55 1    
    57   18   56 1    
    58   19   57 1    
    59   22   58 1    
    60   24   59 1    
    61   24   60 1    
    62   25   61 1    
    63   25   62 1    
    64   26   63 1    
    65   26   64 1    
    66   27   65 1    
    67   27   66 1    
    68   28   67 1    
    69   28   68 1    
    70   29   69 1    
    71   29   70 1    
    72   30   71 1    
    73   30   72 1    
    74   31   73 1    
    75   31   74 1    
    76   32   75 1    
    77   32   76 1    
    78   33   77 1    
    79   33   78 1    
    80   34   79 1    
    81   34   80 1    
    82   35   81 1    
    83   35   82 1    
    84   36   83 1    
    85   36   84 1    
    86   37   85 1    
    87   37   86 1    
    88   38   87 1    
    89   38   88 1    
    90   39   89 1    
    91   39   90 1    
    92   39   91 1    
    93   90   92 1    
    94   90   93 1    
    95   90   94 1    
    96   93   95 1    
    97   93   96 1    
    98   93   97 1    
    99   97   98 1    
   100   97   99 1    
   101   97  100 1    
   102  100  101 1    
   103  100  102 1    
   104  100  103 1    
@<TRIPOS>SUBSTRUCTURE
     1 ****        2 TEMP              0 ****  ****    0 ROOT 
@<TRIPOS>NORMAL
@<TRIPOS>FF_PBC
FORCE_FIELD_SETUP_FEATURE Force Field Setup information
v1.0  0 0.000000 0.000000 0.000000 0.000000 0.000000 0.000000 NONE 0 0 0 0 1 0 0 0 0 0 0 0 0
