#	Name:			PISM01001
#	Creating user name:	baoopengkun
#	Creation time:		Fri Jan 11 22:43:54 2019

#	Modifying user name:	baoopengkun
#	Modification time:	Fri Jan 11 22:46:19 2019

@<TRIPOS>MOLECULE
PISM01001
   42    45     1     1     0
SMALL
GAST_HUCK


@<TRIPOS>ATOM
      1 C1          9.3967   -4.2813  -11.6013 C.ar      1 <1>        -0.0363 
      2 C2          8.6832   -5.4563  -11.3319 C.ar      1 <1>        -0.0520 
      3 C3          8.9976   -6.2559  -10.2224 C.ar      1 <1>        -0.0520 
      4 C4         10.0385   -5.9047   -9.3522 C.ar      1 <1>        -0.0363 
      5 C5         10.7418   -4.7350   -9.6356 C.ar      1 <1>         0.0783 
      6 C6         10.4316   -3.9443  -10.7282 C.ar      1 <1>         0.0783 
      7 C7         11.4069   -2.7944  -10.6827 C.2       1 <1>         0.2592 
      8 O8         11.4288   -1.8835  -11.4935 O.2       1 <1>        -0.3539 
      9 N9         12.1812   -2.9640   -9.6415 N.pl3     1 <1>        -0.1376 
     10 C10        11.8991   -4.0422   -8.9594 C.2       1 <1>         0.2592 
     11 O11        12.4508   -4.4600   -7.9554 O.2       1 <1>        -0.3539 
     12 C12        13.1805   -2.1099   -9.3022 C.ar      1 <1>         0.0870 
     13 C13        14.0803   -1.6420  -10.2680 C.ar      1 <1>        -0.0340 
     14 C14        15.1085   -0.7618   -9.9135 C.ar      1 <1>        -0.0444 
     15 C15        15.2514   -0.3389   -8.5900 C.ar      1 <1>         0.0970 
     16 C16        14.3742   -0.8273   -7.6176 C.ar      1 <1>        -0.0444 
     17 C17        13.3320   -1.6877   -7.9765 C.ar      1 <1>        -0.0340 
     18 S18        16.5365    0.8149   -8.1636 S.o2      1 <1>         0.0657 
     19 O19        16.5282    1.0190   -6.7283 O.2       1 <1>        -0.1515 
     20 N20        17.8968   -0.0272   -8.5401 N.am      1 <1>        -0.2309 
     21 C21        18.8239    0.4810   -9.5466 C.3       1 <1>         0.0530 
     22 C22        19.7326   -0.6357  -10.1201 C.3       1 <1>         0.0647 
     23 O23        20.2535   -1.4681   -9.0662 O.3       1 <1>        -0.3766 
     24 C24        19.2025   -2.1401   -8.3462 C.3       1 <1>         0.0647 
     25 C25        18.2714   -1.1182   -7.6484 C.3       1 <1>         0.0530 
     26 H1          9.1588   -3.6521  -12.4525 H         1 <1>         0.0683 
     27 H2          7.8739   -5.7531  -11.9924 H         1 <1>         0.0663 
     28 H3          8.4272   -7.1595  -10.0332 H         1 <1>         0.0663 
     29 H4         10.2911   -6.5128   -8.4892 H         1 <1>         0.0683 
     30 H5         13.9880   -1.9641  -11.2998 H         1 <1>         0.0540 
     31 H6         15.8016   -0.4015  -10.6656 H         1 <1>         0.0608 
     32 H7         14.5000   -0.5365   -6.5807 H         1 <1>         0.0608 
     33 H8         12.6320   -2.0191   -7.2158 H         1 <1>         0.0540 
     34 H9         19.4525    1.2407   -9.0597 H         1 <1>         0.0501 
     35 H10        18.2873    0.9624  -10.3790 H         1 <1>         0.0501 
     36 H11        20.5829   -0.1881  -10.6598 H         1 <1>         0.0576 
     37 H12        19.1665   -1.2495  -10.8401 H         1 <1>         0.0576 
     38 H13        19.6619   -2.8022   -7.5940 H         1 <1>         0.0576 
     39 H14        18.6153   -2.7688   -9.0346 H         1 <1>         0.0576 
     40 H15        18.7936   -0.6705   -6.7878 H         1 <1>         0.0501 
     41 H16        17.3773   -1.6380   -7.2675 H         1 <1>         0.0501 
     42 O42        16.4168    1.9676   -9.0340 O.2       1 <1>        -0.1515 
@<TRIPOS>BOND
     1    2    1 ar   
     2    2    3 ar   
     3    3    4 ar   
     4    4    5 ar   
     5    5    6 ar   
     6    1    6 ar   
     7    6    7 1    
     8    7    8 2    
     9    7    9 1    
    10    9   10 1    
    11   10   11 2    
    12    5   10 1    
    13    9   12 1    
    14   12   13 ar   
    15   13   14 ar   
    16   14   15 ar   
    17   15   16 ar   
    18   16   17 ar   
    19   12   17 ar   
    20   15   18 1    
    21   18   19 2    
    22   18   20 1    
    23   20   21 1    
    24   21   22 1    
    25   22   23 1    
    26   23   24 1    
    27   24   25 1    
    28   20   25 1    
    29    1   26 1    
    30    2   27 1    
    31    3   28 1    
    32    4   29 1    
    33   13   30 1    
    34   14   31 1    
    35   16   32 1    
    36   17   33 1    
    37   21   34 1    
    38   21   35 1    
    39   22   36 1    
    40   22   37 1    
    41   24   38 1    
    42   24   39 1    
    43   25   40 1    
    44   25   41 1    
    45   18   42 2    
@<TRIPOS>SUBSTRUCTURE
     1 ****        2 TEMP              0 ****  ****    0 ROOT 
@<TRIPOS>NORMAL
@<TRIPOS>FF_PBC
FORCE_FIELD_SETUP_FEATURE Force Field Setup information
v1.0  0 0.000000 0.000000 0.000000 0.000000 0.000000 0.000000 NONE 0 0 0 0 1 0 0 0 0 0 0 0 0
