#	Name:			PISM00725
#	Creating user name:	baoopengkun
#	Creation time:		Sun Jan 20 21:58:07 2019

#	Modifying user name:	baoopengkun
#	Modification time:	Sun Jan 20 22:01:24 2019

@<TRIPOS>MOLECULE
PISM00725
   80    84     1     1     0
SMALL
GAST_HUCK


@<TRIPOS>ATOM
      1 C1         -5.1490   10.8686   -6.1435 C.3       1 <1>        -0.0163 
      2 C2         -6.5039   10.3267   -6.6797 C.3       1 <1>         0.0819 
      3 C3         -7.1205    9.2863   -5.7022 C.3       1 <1>         0.0835 
      4 C4         -7.2600    9.8906   -4.2778 C.3       1 <1>        -0.0028 
      5 C5         -5.8649   10.3694   -3.7827 C.3       1 <1>         0.0681 
      6 C6         -5.2242   11.4667   -4.7021 C.3       1 <1>        -0.0055 
      7 C7         -3.7951   11.8706   -4.1545 C.3       1 <1>        -0.0276 
      8 C8         -2.9979   10.6825   -3.5226 C.3       1 <1>        -0.0063 
      9 C9         -3.5607   10.3216   -2.1032 C.3       1 <1>         0.0801 
     10 O10        -4.7593   10.9889   -1.6397 O.3       1 <1>        -0.2763 
     11 C11        -5.8874   10.8689   -2.3613 C.2       1 <1>         0.2374 
     12 O12        -6.9459   11.1969   -1.8517 O.2       1 <1>        -0.3701 
     13 C13        -2.8867   12.6454   -5.1583 C.3       1 <1>        -0.0487 
     14 C14        -1.6471   13.2827   -4.4459 C.3       1 <1>        -0.0468 
     15 C15        -0.9606   12.3693   -3.3669 C.3       1 <1>        -0.0257 
     16 C16        -1.4488   10.9169   -3.6219 C.3       1 <1>        -0.0298 
     17 C17        -0.4877    9.9945   -2.8331 C.3       1 <1>        -0.0491 
     18 C18         0.8558   10.7807   -2.8557 C.3       1 <1>        -0.0491 
     19 C19         0.5905   12.1646   -3.5341 C.3       1 <1>        -0.0304 
     20 O20        -6.2437    9.7393   -7.9698 O.3       1 <1>        -0.3892 
     21 O21        -6.2735    8.1209   -5.6706 O.3       1 <1>        -0.3891 
     22 C22         5.3737   12.2968   -0.9621 C.3       1 <1>        -0.0360 
     23 C23        -6.1140   12.7608   -4.7112 C.3       1 <1>        -0.0568 
     24 C24        -1.2874   12.8620   -1.9201 C.3       1 <1>        -0.0590 
     25 C25         1.5786   13.2816   -3.0324 C.3       1 <1>        -0.0120 
     26 C26         3.0912   12.8817   -3.1968 C.3       1 <1>         0.0841 
     27 C27         4.0901   13.8751   -2.5090 C.3       1 <1>         0.0841 
     28 C28         5.4807   13.2011   -2.2354 C.3       1 <1>        -0.0125 
     29 H1         -4.7998   11.6292   -6.8586 H         1 <1>         0.0298 
     30 C30         6.2039   12.6117    0.3054 C.3       1 <1>        -0.0496 
     31 C31         6.6106   11.4364   -0.6113 C.3       1 <1>        -0.0496 
     32 C32         1.2961   14.6522   -3.7101 C.3       1 <1>        -0.0597 
     33 O33         3.4940   12.7602   -4.5767 O.3       1 <1>        -0.3890 
     34 O34         4.2072   15.0400   -3.3531 O.3       1 <1>        -0.3890 
     35 C35         6.6399   14.2412   -2.1863 C.3       1 <1>        -0.0597 
     36 H2         -4.4318   10.0343   -6.1650 H         1 <1>         0.0298 
     37 H3         -7.2148   11.1554   -6.8330 H         1 <1>         0.0619 
     38 H4         -8.1164    8.9959   -6.0833 H         1 <1>         0.0621 
     39 H5         -7.6402    9.1097   -3.5974 H         1 <1>         0.0319 
     40 H6         -8.0079   10.6952   -4.2680 H         1 <1>         0.0319 
     41 H7         -5.2947    9.4330   -3.7888 H         1 <1>         0.0560 
     42 H8         -3.9596   12.5980   -3.3476 H         1 <1>         0.0311 
     43 H9         -3.1342    9.7937   -4.1608 H         1 <1>         0.0332 
     44 H10        -2.8582   10.6386   -1.3257 H         1 <1>         0.0616 
     45 H11        -3.6753    9.2312   -1.9842 H         1 <1>         0.0616 
     46 H12        -3.4280   13.4624   -5.6585 H         1 <1>         0.0268 
     47 H13        -2.5613   11.9614   -5.9579 H         1 <1>         0.0268 
     48 H14        -1.9904   14.2156   -3.9697 H         1 <1>         0.0271 
     49 H15        -0.9369   13.5670   -5.2385 H         1 <1>         0.0271 
     50 H16        -1.1672   10.6979   -4.6705 H         1 <1>         0.0310 
     51 H17        -0.4016    8.9982   -3.3008 H         1 <1>         0.0268 
     52 H18        -0.8039    9.8339   -1.7931 H         1 <1>         0.0268 
     53 H19         1.6247   10.2129   -3.4070 H         1 <1>         0.0268 
     54 H20         1.2120   10.9137   -1.8202 H         1 <1>         0.0268 
     55 H21         0.7699   12.0436   -4.6146 H         1 <1>         0.0310 
     56 H22        -7.0162    9.3612   -8.3778 H         1 <1>         0.2099 
     57 H23        -6.6193    7.4119   -5.1369 H         1 <1>         0.2099 
     58 H24         4.4380   11.7541   -0.7579 H         1 <1>         0.0304 
     59 H25        -7.1360   12.6084   -5.0719 H         1 <1>         0.0237 
     60 H26        -5.6859   13.5379   -5.3572 H         1 <1>         0.0237 
     61 H27        -6.2043   13.1841   -3.6992 H         1 <1>         0.0237 
     62 H28        -2.3656   12.9134   -1.7321 H         1 <1>         0.0235 
     63 H29        -0.9047   13.8791   -1.7596 H         1 <1>         0.0235 
     64 H30        -0.8398   12.2156   -1.1527 H         1 <1>         0.0235 
     65 H31         1.4092   13.4034   -1.9509 H         1 <1>         0.0327 
     66 H32         3.2409   11.9020   -2.7229 H         1 <1>         0.0622 
     67 H33         3.6719   14.1872   -1.5355 H         1 <1>         0.0622 
     68 H34         5.7053   12.5325   -3.0835 H         1 <1>         0.0326 
     69 H35         5.7651   12.3173    1.2714 H         1 <1>         0.0268 
     70 H36         6.9332   13.4321    0.3435 H         1 <1>         0.0268 
     71 H37         7.5244   11.5544   -1.2118 H         1 <1>         0.0268 
     72 H38         6.4233   10.4288   -0.2071 H         1 <1>         0.0268 
     73 H39         1.5326   14.6015   -4.7833 H         1 <1>         0.0233 
     74 H40         1.8871   15.4564   -3.2538 H         1 <1>         0.0233 
     75 H41         0.2516   14.9583   -3.5948 H         1 <1>         0.0233 
     76 H42         3.0371   12.0893   -5.0706 H         1 <1>         0.2099 
     77 H43         4.6288   15.7894   -2.9454 H         1 <1>         0.2099 
     78 H44         7.6106   13.7711   -1.9776 H         1 <1>         0.0233 
     79 H45         6.4423   15.0044   -1.4182 H         1 <1>         0.0233 
     80 H46         6.7472   14.7416   -3.1612 H         1 <1>         0.0233 
@<TRIPOS>BOND
     1    2    1 1    
     2    2    3 1    
     3    3    4 1    
     4    4    5 1    
     5    6    5 1    
     6    1    6 1    
     7    6    7 1    
     8    7    8 1    
     9    8    9 1    
    10   10    9 1    
    11   11   10 1    
    12   11   12 2    
    13    5   11 1    
    14    7   13 1    
    15   13   14 1    
    16   14   15 1    
    17   16   15 1    
    18    8   16 1    
    19   16   17 1    
    20   17   18 1    
    21   19   18 1    
    22   15   19 1    
    23    2   20 1    
    24    3   21 1    
    25   28   22 1    
    26    6   23 1    
    27   15   24 1    
    28   19   25 1    
    29   25   26 1    
    30   26   27 1    
    31   27   28 1    
    32   31   30 1    
    33   22   30 1    
    34   22   31 1    
    35   25   32 1    
    36   26   33 1    
    37   27   34 1    
    38   28   35 1    
    39    1   29 1    
    40    1   36 1    
    41    2   37 1    
    42    3   38 1    
    43    4   39 1    
    44    4   40 1    
    45    5   41 1    
    46    7   42 1    
    47    8   43 1    
    48    9   44 1    
    49    9   45 1    
    50   13   46 1    
    51   13   47 1    
    52   14   48 1    
    53   14   49 1    
    54   16   50 1    
    55   17   51 1    
    56   17   52 1    
    57   18   53 1    
    58   18   54 1    
    59   19   55 1    
    60   20   56 1    
    61   21   57 1    
    62   22   58 1    
    63   23   59 1    
    64   23   60 1    
    65   23   61 1    
    66   24   62 1    
    67   24   63 1    
    68   24   64 1    
    69   25   65 1    
    70   26   66 1    
    71   27   67 1    
    72   28   68 1    
    73   30   69 1    
    74   30   70 1    
    75   31   71 1    
    76   31   72 1    
    77   32   73 1    
    78   32   74 1    
    79   32   75 1    
    80   33   76 1    
    81   34   77 1    
    82   35   78 1    
    83   35   79 1    
    84   35   80 1    
@<TRIPOS>SUBSTRUCTURE
     1 ****        2 TEMP              0 ****  ****    0 ROOT 
@<TRIPOS>NORMAL
@<TRIPOS>FF_PBC
FORCE_FIELD_SETUP_FEATURE Force Field Setup information
v1.0  0 0.000000 0.000000 0.000000 0.000000 0.000000 0.000000 NONE 0 0 0 0 1 0 0 0 0 0 0 0 0
