#	Name:			PISM01062
#	Creating user name:	Qinrunwen
#	Creation time:		Sun Mar 31 11:23:01 2019

#	Modifying user name:	Qinrunwen
#	Modification time:	Sun Mar 31 11:45:38 2019

@<TRIPOS>MOLECULE
PISM01062
   43    46     1     1     0
SMALL
GAST_HUCK


@<TRIPOS>ATOM
      1 C1         -2.5429    5.7182    7.1038 C.ar      1 <1>        -0.0182 
      2 C2         -3.2481    4.5736    6.7085 C.ar      1 <1>        -0.0181 
      3 C3         -1.2503    5.9412    6.6144 C.ar      1 <1>        -0.0537 
      4 C4         -0.6671    5.0352    5.7251 C.ar      1 <1>        -0.0532 
      5 C5         -1.3935    3.9279    5.2794 C.ar      1 <1>        -0.0070 
      6 C6         -2.6681    3.6823    5.7975 C.ar      1 <1>        -0.0466 
      7 C7         -0.8156    2.9802    4.2535 C.2       1 <1>         0.0737 
      8 N8         -1.0321    1.7273    4.2718 N.2       1 <1>        -0.1913 
      9 C9          0.0850    3.2866    3.0876 C.ar      1 <1>         0.0877 
     10 C10         0.3610    2.0204    2.5995 C.ar      1 <1>         0.1644 
     11 N11        -0.3496    1.0934    3.2840 N.pl3     1 <1>        -0.1771 
     12 C12        -0.3893   -0.3414    3.0222 C.3       1 <1>         0.0837 
     13 C13        -1.0864   -0.5662    1.6530 C.3       1 <1>        -0.0311 
     14 C14        -1.2090   -1.0259    4.1527 C.3       1 <1>        -0.0311 
     15 C15         1.0528   -0.9189    3.0052 C.3       1 <1>        -0.0311 
     16 C16         0.6139    4.4188    2.4675 C.ar      1 <1>         0.1276 
     17 N17         1.5689    4.2082    1.5371 N.ar      1 <1>        -0.2655 
     18 C18         1.8655    2.9639    1.0951 C.ar      1 <1>         0.0566 
     19 N19         1.2324    1.8736    1.5829 N.ar      1 <1>        -0.2673 
     20 N20         0.1976    5.6753    2.7365 N.pl3     1 <1>        -0.3125 
     21 C21        -3.1363    6.6275    7.9878 C.ar      1 <1>        -0.0543 
     22 C22        -4.4132    6.3826    8.5001 C.ar      1 <1>        -0.0614 
     23 C23        -5.1075    5.2309    8.1221 C.ar      1 <1>        -0.0614 
     24 C24        -4.5265    4.3305    7.2253 C.ar      1 <1>        -0.0544 
     25 H1         -0.6857    6.8161    6.9223 H         1 <1>         0.0623 
     26 H2          0.3532    5.1910    5.3894 H         1 <1>         0.0621 
     27 H3         -3.2048    2.7931    5.4817 H         1 <1>         0.0622 
     28 H4         -0.5212   -0.0744    0.8468 H         1 <1>         0.0262 
     29 H5         -2.1020   -0.1410    1.6716 H         1 <1>         0.0262 
     30 H6         -1.1560   -1.6407    1.4257 H         1 <1>         0.0262 
     31 H7         -2.2297   -0.6150    4.1929 H         1 <1>         0.0262 
     32 H8         -0.7264   -0.8530    5.1269 H         1 <1>         0.0262 
     33 H9         -1.2780   -2.1113    3.9849 H         1 <1>         0.0262 
     34 H10         1.0275   -2.0158    2.9196 H         1 <1>         0.0262 
     35 H11         1.5712   -0.6471    3.9375 H         1 <1>         0.0262 
     36 H12         1.6311   -0.5256    2.1568 H         1 <1>         0.0262 
     37 H13         2.6264    2.8380    0.3322 H         1 <1>         0.1030 
     38 H14        -0.6974    5.8411    3.2157 H         1 <1>         0.1842 
     39 H15         0.7352    6.4768    2.3766 H         1 <1>         0.1842 
     40 H16        -2.6097    7.5292    8.2842 H         1 <1>         0.0623 
     41 H17        -4.8646    7.0869    9.1922 H         1 <1>         0.0616 
     42 H18        -6.0966    5.0369    8.5260 H         1 <1>         0.0617 
     43 H19        -5.0777    3.4411    6.9338 H         1 <1>         0.0622 
@<TRIPOS>BOND
     1    1    2 ar   
     2    1    3 ar   
     3    3    4 ar   
     4    4    5 ar   
     5    6    5 ar   
     6    2    6 ar   
     7    5    7 1    
     8    7    8 2    
     9    7    9 1    
    10    9   10 ar   
    11   10   11 1    
    12    8   11 1    
    13   11   12 1    
    14   12   13 1    
    15   12   14 1    
    16   12   15 1    
    17    9   16 ar   
    18   16   17 ar   
    19   17   18 ar   
    20   19   18 ar   
    21   10   19 ar   
    22   16   20 1    
    23    1   21 ar   
    24   21   22 ar   
    25   22   23 ar   
    26   23   24 ar   
    27    2   24 ar   
    28    3   25 1    
    29    4   26 1    
    30    6   27 1    
    31   13   28 1    
    32   13   29 1    
    33   13   30 1    
    34   14   31 1    
    35   14   32 1    
    36   14   33 1    
    37   15   34 1    
    38   15   35 1    
    39   15   36 1    
    40   18   37 1    
    41   20   38 1    
    42   20   39 1    
    43   21   40 1    
    44   22   41 1    
    45   23   42 1    
    46   24   43 1    
@<TRIPOS>SUBSTRUCTURE
     1 ****        1 TEMP              0 ****  ****    0 ROOT 
@<TRIPOS>NORMAL
@<TRIPOS>FF_PBC
FORCE_FIELD_SETUP_FEATURE Force Field Setup information
v1.0  0 0.000000 0.000000 0.000000 0.000000 0.000000 0.000000 NONE 0 0 0 0 1 0 0 0 0 0 0 0 0
