#	Name:			PISM00082
#	Creating user name:	baoopengkun
#	Creation time:		Thu Dec 27 12:34:36 2018

#	Modifying user name:	baoopengkun
#	Modification time:	Thu Dec 27 12:36:05 2018

@<TRIPOS>MOLECULE
PISM00082
   37    39     1     1     0
SMALL
GAST_HUCK


@<TRIPOS>ATOM
      1 C1          2.4259   -1.5551   -8.0531 C.2       1 <1>        -0.0661 
      2 C2          3.2911   -1.0950   -7.1469 C.2       1 <1>         0.0013 
      3 S3          3.5338    0.6650   -7.2390 S.3       1 <1>        -0.0253 
      4 C4          2.3738    0.7226   -8.5969 C.2       1 <1>         0.1045 
      5 C5          1.8884   -0.4848   -8.9042 C.2       1 <1>        -0.0543 
      6 C6          2.0011    1.9758   -9.2940 C.2       1 <1>         0.2277 
      7 O7          1.1879    1.8804  -10.1992 O.2       1 <1>        -0.3755 
      8 N8          2.5105    3.1305   -8.9517 N.pl3     1 <1>        -0.2503 
      9 C9          2.1714    4.2751   -9.5937 C.ar      1 <1>         0.0510 
     10 C10         2.2742    4.3606  -10.9864 C.ar      1 <1>        -0.0558 
     11 C11         1.9424    5.5443  -11.6508 C.ar      1 <1>        -0.0565 
     12 C12         1.5577    6.6757  -10.9233 C.ar      1 <1>         0.0432 
     13 C13         1.4436    6.5827   -9.5322 C.ar      1 <1>        -0.0480 
     14 C14         1.7258    5.3851   -8.8642 C.ar      1 <1>        -0.0326 
     15 C15         1.5411    5.2882   -7.3434 C.3       1 <1>        -0.0363 
     16 N16         1.2828    7.8517  -11.5403 N.pl3     1 <1>        -0.2473 
     17 C17         2.0421    8.3350  -12.4873 C.2       1 <1>         0.2012 
     18 O18         3.0608    7.7968  -12.8871 O.2       1 <1>        -0.3802 
     19 C19         1.6456    9.6459  -13.1153 C.3       1 <1>         0.0539 
     20 C20         0.3635    9.6235  -13.9747 C.3       1 <1>        -0.0302 
     21 C21         1.7450    9.7300  -14.6540 C.3       1 <1>        -0.0302 
     22 H1          2.1459   -2.6036   -8.1555 H         1 <1>         0.0438 
     23 H2          3.8031   -1.7240   -6.4191 H         1 <1>         0.0803 
     24 H3          1.1681   -0.6704   -9.7008 H         1 <1>         0.0518 
     25 H4          3.1775    3.1870   -8.1714 H         1 <1>         0.2041 
     26 H5          2.6183    3.5062  -11.5602 H         1 <1>         0.0481 
     27 H6          1.9807    5.5734  -12.7347 H         1 <1>         0.0444 
     28 H7          1.1346    7.4563   -8.9680 H         1 <1>         0.0438 
     29 H8          0.8870    6.0876   -6.9640 H         1 <1>         0.0366 
     30 H9          2.5228    5.3730   -6.8543 H         1 <1>         0.0366 
     31 H10         1.0851    4.3222   -7.0778 H         1 <1>         0.0366 
     32 H11         0.4578    8.3879  -11.2340 H         1 <1>         0.2075 
     33 H12         1.8510   10.5832  -12.5759 H         1 <1>         0.0546 
     34 H13        -0.2571   10.5332  -13.9686 H         1 <1>         0.0294 
     35 H14        -0.1603    8.6597  -14.0733 H         1 <1>         0.0294 
     36 H15         2.0072   10.7081  -15.0864 H         1 <1>         0.0294 
     37 H16         2.0977    8.8353  -15.1906 H         1 <1>         0.0294 
@<TRIPOS>BOND
     1    2    1 2    
     2    2    3 1    
     3    3    4 1    
     4    4    5 2    
     5    1    5 1    
     6    4    6 1    
     7    6    7 2    
     8    6    8 1    
     9    8    9 1    
    10    9   10 ar   
    11   10   11 ar   
    12   11   12 ar   
    13   12   13 ar   
    14   13   14 ar   
    15    9   14 ar   
    16   14   15 1    
    17   12   16 1    
    18   16   17 1    
    19   17   18 2    
    20   17   19 1    
    21   19   20 1    
    22   20   21 1    
    23   19   21 1    
    24    1   22 1    
    25    2   23 1    
    26    5   24 1    
    27    8   25 1    
    28   10   26 1    
    29   11   27 1    
    30   13   28 1    
    31   15   29 1    
    32   15   30 1    
    33   15   31 1    
    34   16   32 1    
    35   19   33 1    
    36   20   34 1    
    37   20   35 1    
    38   21   36 1    
    39   21   37 1    
@<TRIPOS>SUBSTRUCTURE
     1 ****        2 TEMP              0 ****  ****    0 ROOT 
@<TRIPOS>NORMAL
@<TRIPOS>FF_PBC
FORCE_FIELD_SETUP_FEATURE Force Field Setup information
v1.0  0 0.000000 0.000000 0.000000 0.000000 0.000000 0.000000 NONE 0 0 0 0 1 0 0 0 0 0 0 0 0
