#	Name:			PISM00539
#	Creating user name:	malab
#	Creation time:		Thu Apr 04 21:49:34 2019

#	Modifying user name:	malab
#	Modification time:	Thu Apr 04 21:50:27 2019

@<TRIPOS>MOLECULE
PISM00539
   15    15     1     1     0
SMALL
GAST_HUCK


@<TRIPOS>ATOM
      1 Cl1        23.6829    8.0950  -10.2174 Cl        1 <1>        -0.0657 
      2 C2         25.2316    8.8098   -9.8294 C.2       1 <1>         0.1061 
      3 N3         25.5440    9.4720   -8.7967 N.2       1 <1>        -0.1923 
      4 C4         26.4274    8.7419  -10.6716 C.2       1 <1>        -0.0100 
      5 C5         27.3611    9.4156   -9.9902 C.2       1 <1>         0.1712 
      6 N6         26.8374    9.8520   -8.8722 N.pl3     1 <1>        -0.1909 
      7 C7         27.5134   10.6296   -7.8439 C.3       1 <1>         0.0618 
      8 C8         28.7525    9.6198  -10.4480 C.2       1 <1>         0.2883 
      9 O9         29.1064    9.1535  -11.5201 O.2       1 <1>        -0.3549 
     10 O10        29.6182   10.3074   -9.6992 O.3       1 <1>        -0.2919 
     11 H1         26.5246    8.2491  -11.6378 H         1 <1>         0.0444 
     12 H2         28.3663   10.0652   -7.4378 H         1 <1>         0.0606 
     13 H3         26.8097   10.8395   -7.0242 H         1 <1>         0.0606 
     14 H4         27.8641   11.5866   -8.2590 H         1 <1>         0.0606 
     15 H5         30.4735   10.3611  -10.1121 H         1 <1>         0.2521 
@<TRIPOS>BOND
     1    2    1 1    
     2    2    3 2    
     3    2    4 1    
     4    4    5 2    
     5    5    6 1    
     6    3    6 1    
     7    6    7 1    
     8    5    8 1    
     9    8    9 2    
    10    8   10 1    
    11    4   11 1    
    12    7   12 1    
    13    7   13 1    
    14    7   14 1    
    15   10   15 1    
@<TRIPOS>SUBSTRUCTURE
     1 ****        2 TEMP              0 ****  ****    0 ROOT 
@<TRIPOS>NORMAL
@<TRIPOS>FF_PBC
FORCE_FIELD_SETUP_FEATURE Force Field Setup information
v1.0  0 0.000000 0.000000 0.000000 0.000000 0.000000 0.000000 NONE 0 0 0 0 1 0 0 0 0 0 0 0 0
