#	Name:			PISM00910
#	Creating user name:	baoopengkun
#	Creation time:		Fri Dec 14 10:31:16 2018

#	Modifying user name:	baoopengkun
#	Modification time:	Fri Dec 14 10:40:52 2018

@<TRIPOS>MOLECULE
PISM00910
   33    36     1     1     0
SMALL
GAST_HUCK


@<TRIPOS>ATOM
      1 C1         20.2582   12.9955   -7.3707 C.ar      1 <1>        -0.0300 
      2 C2         19.5912   13.6130   -6.3017 C.ar      1 <1>        -0.0087 
      3 C3         19.5528   15.0158   -6.1899 C.ar      1 <1>        -0.0087 
      4 C4         20.1805   15.8298   -7.1452 C.ar      1 <1>        -0.0300 
      5 C5         20.8393   15.2001   -8.1992 C.ar      1 <1>         0.0724 
      6 C6         20.8778   13.8188   -8.3086 C.ar      1 <1>         0.0724 
      7 C7         21.6714   13.5310   -9.5587 C.2       1 <1>         0.2425 
      8 N8         22.0612   14.6904  -10.1234 N.am      1 <1>        -0.1406 
      9 C9         21.6091   15.7227   -9.3866 C.2       1 <1>         0.2425 
     10 O10        21.9114   12.4085   -9.9690 O.2       1 <1>        -0.3690 
     11 O11        21.7847   16.9054   -9.6232 O.2       1 <1>        -0.3690 
     12 C12        22.8105   14.8093  -11.3614 C.3       1 <1>         0.2217 
     13 O13        21.9402   14.4641  -12.4574 O.3       1 <1>        -0.2347 
     14 C14        22.4773   13.3788  -13.0013 C.2       1 <1>         0.2491 
     15 C15        23.7134   12.9127  -12.3830 C.2       1 <1>         0.0288 
     16 C16        23.9216   13.7871  -11.4004 C.2       1 <1>        -0.0058 
     17 C17        24.5558   11.7315  -12.7792 C.3       1 <1>        -0.0323 
     18 O18        21.9710   12.8197  -13.9591 O.2       1 <1>        -0.3691 
     19 C19        18.8800   15.6050   -5.1124 C.ar      1 <1>        -0.0499 
     20 C20        18.2484   14.8116   -4.1510 C.ar      1 <1>        -0.0581 
     21 C21        18.2866   13.4199   -4.2622 C.ar      1 <1>        -0.0581 
     22 C22        18.9563   12.8244   -5.3343 C.ar      1 <1>        -0.0499 
     23 H1         20.3019   11.9170   -7.4818 H         1 <1>         0.0702 
     24 H2         20.1652   16.9130   -7.0837 H         1 <1>         0.0702 
     25 H3         23.2125   15.8258  -11.5081 H         1 <1>         0.1153 
     26 H4         24.7663   13.7671  -10.7131 H         1 <1>         0.0702 
     27 H5         24.1932   10.8364  -12.2525 H         1 <1>         0.0347 
     28 H6         25.6107   11.9022  -12.5171 H         1 <1>         0.0347 
     29 H7         24.4803   11.5649  -13.8641 H         1 <1>         0.0347 
     30 H8         18.8414   16.6856   -5.0115 H         1 <1>         0.0640 
     31 H9         17.7283   15.2756   -3.3183 H         1 <1>         0.0634 
     32 H10        17.7962   12.8018   -3.5160 H         1 <1>         0.0634 
     33 H11        18.9772   11.7410   -5.4065 H         1 <1>         0.0640 
@<TRIPOS>BOND
     1    2    1 ar   
     2    2    3 ar   
     3    3    4 ar   
     4    4    5 ar   
     5    5    6 ar   
     6    1    6 ar   
     7    6    7 1    
     8    7    8 am   
     9    8    9 am   
    10    5    9 1    
    11    7   10 2    
    12    9   11 2    
    13    8   12 1    
    14   12   13 1    
    15   13   14 1    
    16   14   15 1    
    17   15   16 2    
    18   12   16 1    
    19   15   17 1    
    20   14   18 2    
    21    3   19 ar   
    22   19   20 ar   
    23   20   21 ar   
    24   21   22 ar   
    25    2   22 ar   
    26    1   23 1    
    27    4   24 1    
    28   12   25 1    
    29   16   26 1    
    30   17   27 1    
    31   17   28 1    
    32   17   29 1    
    33   19   30 1    
    34   20   31 1    
    35   21   32 1    
    36   22   33 1    
@<TRIPOS>SUBSTRUCTURE
     1 ****        2 TEMP              0 ****  ****    0 ROOT 
@<TRIPOS>NORMAL
@<TRIPOS>FF_PBC
FORCE_FIELD_SETUP_FEATURE Force Field Setup information
v1.0  0 0.000000 0.000000 0.000000 0.000000 0.000000 0.000000 NONE 0 0 0 0 1 0 0 0 0 0 0 0 0
