#	Name:			PISM00408.1
#	Creating user name:	baoopengkun
#	Creation time:		Sun Mar 31 18:30:50 2019

#	Modifying user name:	baoopengkun
#	Modification time:	Sun Mar 31 18:33:52 2019

@<TRIPOS>MOLECULE
PISM00408.1
   34    34     1     1     0
SMALL
GAST_HUCK


@<TRIPOS>ATOM
      1 C1         -3.0356   -2.2969  -12.0683 C.3       1 <1>         0.0398 
      2 C2         -4.4129   -2.8580  -11.6368 C.3       1 <1>        -0.0378 
      3 C3         -4.8750   -3.9476  -12.6360 C.3       1 <1>        -0.0528 
      4 C4         -3.8307   -5.0885  -12.6982 C.3       1 <1>        -0.0609 
      5 C5         -2.4297   -4.5584  -13.1219 C.3       1 <1>        -0.0590 
      6 C6         -1.9358   -3.3940  -12.2019 C.3       1 <1>         0.0450 
      7 O7         -3.2168   -1.6259  -13.3293 O.3       1 <1>        -0.4043 
      8 H8         -2.7011   -1.5513  -11.3242 H         1 <1>         0.0448 
      9 C9         -1.5380   -3.9000  -10.8271 C.2       1 <1>        -0.0703 
     10 C10        -0.3191   -3.7706  -10.2850 C.2       1 <1>        -0.0082 
     11 C11        -0.0080   -4.2951   -8.9381 C.2       1 <1>         0.0276 
     12 C12         1.1714   -4.7915   -8.5346 C.2       1 <1>         0.0852 
     13 C13         2.3822   -4.9482   -9.3766 C.2       1 <1>         0.3009 
     14 O14         2.3305   -4.7528  -10.5776 O.2       1 <1>        -0.3272 
     15 O15         3.5583   -5.3171   -8.8590 O.3       1 <1>        -0.2865 
     16 O16        -0.8489   -2.6815  -12.8319 O.3       1 <1>        -0.4518 
     17 C17        -1.4323   -5.7544  -13.1742 C.3       1 <1>        -0.0729 
     18 H1         -5.1472   -2.0358  -11.6293 H         1 <1>         0.0277 
     19 H2         -4.3675   -3.2758  -10.6196 H         1 <1>         0.0277 
     20 H3         -4.9973   -3.5043  -13.6380 H         1 <1>         0.0265 
     21 H4         -5.8514   -4.3510  -12.3195 H         1 <1>         0.0265 
     22 H5         -4.1790   -5.8380  -13.4289 H         1 <1>         0.0256 
     23 H6         -3.7742   -5.5861  -11.7176 H         1 <1>         0.0256 
     24 H7         -2.5248   -4.1498  -14.1432 H         1 <1>         0.0158 
     25 H9         -2.3758   -1.3286  -13.6671 H         1 <1>         0.2080 
     26 H10        -2.2934   -4.4120  -10.2346 H         1 <1>         0.0557 
     27 H11         0.4727   -3.2643  -10.8324 H         1 <1>         0.1255 
     28 H12        -0.8274   -4.2707   -8.2169 H         1 <1>         0.0918 
     29 H13         1.2449   -5.1189   -7.4980 H         1 <1>         0.1276 
     30 H14         3.5677   -5.4615   -7.9219 H         1 <1>         0.2526 
     31 H15        -0.1177   -3.2241  -13.0990 H         1 <1>         0.1857 
     32 H16        -1.2935   -6.1911  -12.1739 H         1 <1>         0.0220 
     33 H17        -0.4479   -5.4575  -13.5616 H         1 <1>         0.0220 
     34 H18        -1.8209   -6.5412  -13.8391 H         1 <1>         0.0220 
@<TRIPOS>BOND
     1    2    1 1    
     2    2    3 1    
     3    3    4 1    
     4    4    5 1    
     5    5    6 1    
     6    1    6 1    
     7    1    7 1    
     8    1    8 1    
     9    6    9 1    
    10    9   10 2    
    11   10   11 1    
    12   11   12 2    
    13   12   13 1    
    14   13   14 2    
    15   13   15 1    
    16    6   16 1    
    17    5   17 1    
    18    2   18 1    
    19    2   19 1    
    20    3   20 1    
    21    3   21 1    
    22    4   22 1    
    23    4   23 1    
    24    5   24 1    
    25    7   25 1    
    26    9   26 1    
    27   10   27 1    
    28   11   28 1    
    29   12   29 1    
    30   15   30 1    
    31   16   31 1    
    32   17   32 1    
    33   17   33 1    
    34   17   34 1    
@<TRIPOS>SUBSTRUCTURE
     1 ****        2 TEMP              0 ****  ****    0 ROOT 
@<TRIPOS>NORMAL
@<TRIPOS>FF_PBC
FORCE_FIELD_SETUP_FEATURE Force Field Setup information
v1.0  0 0.000000 0.000000 0.000000 0.000000 0.000000 0.000000 NONE 0 0 0 0 1 0 0 0 0 0 0 0 0
