#	Name:			PISM00855
#	Creating user name:	baoopengkun
#	Creation time:		Thu Dec 13 15:12:19 2018

#	Modifying user name:	baoopengkun
#	Modification time:	Thu Dec 13 20:11:25 2018

@<TRIPOS>MOLECULE
PISM00855
   24    25     1     1     0
SMALL
GAST_HUCK


@<TRIPOS>ATOM
      1 F1          0.1970   -0.4210    1.8468 F         1 <1>        -0.1876 
      2 C2         -1.8563    0.2586    0.8994 C.ar      1 <1>        -0.0339 
      3 C3         -2.5861    0.6778   -0.2170 C.ar      1 <1>        -0.0652 
      4 C4         -1.9519    0.8137   -1.4555 C.ar      1 <1>         0.0001 
      5 C5         -0.5886    0.5294   -1.5752 C.ar      1 <1>        -0.0247 
      6 C6          0.1413    0.1092   -0.4606 C.ar      1 <1>         0.1341 
      7 C7         -0.4934   -0.0248    0.7787 C.ar      1 <1>         0.1631 
      8 Br8        -2.9164    1.3700   -2.9361 Br        1 <1>        -0.0564 
      9 O9          1.5006   -0.1737   -0.5941 O.3       1 <1>        -0.2702 
     10 C10         2.3394    0.8463   -0.0379 C.3       1 <1>         0.2350 
     11 O11         2.0464    2.1037   -0.6804 O.3       1 <1>        -0.2315 
     12 C12         3.1471    2.4170   -1.3520 C.2       1 <1>         0.2494 
     13 C13         4.2566    1.4804   -1.2113 C.2       1 <1>         0.0292 
     14 C14         3.7670    0.5344   -0.4121 C.2       1 <1>        -0.0021 
     15 C15         5.6245    1.5602   -1.8322 C.3       1 <1>        -0.0323 
     16 O16         3.2206    3.4250   -2.0333 O.2       1 <1>        -0.3691 
     17 H1         -2.3437    0.1513    1.8629 H         1 <1>         0.0581 
     18 H2         -3.6448    0.8979   -0.1223 H         1 <1>         0.0539 
     19 H3         -0.0896    0.6351   -2.5325 H         1 <1>         0.0556 
     20 H4          2.2308    0.9348    1.0558 H         1 <1>         0.1197 
     21 H5          4.3129   -0.3470   -0.0784 H         1 <1>         0.0705 
     22 H6          5.9400    0.5668   -2.1848 H         1 <1>         0.0347 
     23 H7          6.3455    1.9245   -1.0856 H         1 <1>         0.0347 
     24 H8          5.6126    2.2536   -2.6865 H         1 <1>         0.0347 
@<TRIPOS>BOND
     1    7    1 1    
     2    2    3 ar   
     3    3    4 ar   
     4    4    5 ar   
     5    5    6 ar   
     6    6    7 ar   
     7    2    7 ar   
     8    4    8 1    
     9    6    9 1    
    10    9   10 1    
    11   10   11 1    
    12   11   12 1    
    13   12   13 1    
    14   13   14 2    
    15   10   14 1    
    16   13   15 1    
    17   12   16 2    
    18    2   17 1    
    19    3   18 1    
    20    5   19 1    
    21   10   20 1    
    22   14   21 1    
    23   15   22 1    
    24   15   23 1    
    25   15   24 1    
@<TRIPOS>SUBSTRUCTURE
     1 ****        2 TEMP              0 ****  ****    0 ROOT 
@<TRIPOS>NORMAL
@<TRIPOS>FF_PBC
FORCE_FIELD_SETUP_FEATURE Force Field Setup information
v1.0  0 0.000000 0.000000 0.000000 0.000000 0.000000 0.000000 NONE 0 0 0 0 1 0 0 0 0 0 0 0 0
