#	Name:			PISM00783
#	Creating user name:	baoopengkun
#	Creation time:		Fri Nov 30 22:24:57 2018

#	Modifying user name:	baoopengkun
#	Modification time:	Fri Nov 30 22:25:27 2018

@<TRIPOS>MOLECULE
PISM00783
   33    34     1     2     0
SMALL
GAST_HUCK


@<TRIPOS>ATOM
      1 C1        -21.2381   16.7528  -11.5759 C.2       1 <1>         0.0800 
      2 C2        -22.3178   17.7979  -11.5213 C.3       1 <1>         0.0179 
      3 C3        -23.0628   17.7488  -10.1574 C.3       1 <1>        -0.0033 
      4 C4        -22.0086   17.8208   -9.0147 C.3       1 <1>         0.0306 
      5 C5        -20.9555   16.7508   -9.1543 C.2       1 <1>         0.1031 
      6 C6        -20.5983   16.2493  -10.3476 C.2       1 <1>        -0.0086 
      7 O7        -20.8869   16.3177  -12.6601 O.2       1 <1>        -0.4166 
      8 C8        -24.0369   18.9584  -10.0513 C.3       1 <1>        -0.0551 
      9 C9        -23.8823   16.4276  -10.0416 C.3       1 <1>        -0.0551 
     10 O10       -20.4224   16.3701   -7.9749 O.3       1 <1>        -0.2481 
     11 C11       -19.4725   15.2909   -7.9891 C.3       1 <1>         0.2446 
     12 O12       -20.0967   14.0788   -8.4638 O.3       1 <1>        -0.2297 
     13 C13       -20.1212   13.2594   -7.4210 C.2       1 <1>         0.2496 
     14 C14       -19.5182   13.7802   -6.2004 C.2       1 <1>         0.0293 
     15 C15       -19.1232   15.0030   -6.5491 C.2       1 <1>        -0.0002 
     16 C16       -19.3833   13.1022   -4.8645 C.3       1 <1>        -0.0323 
     17 O17       -20.6108   12.1451   -7.4876 O.2       1 <1>        -0.3691 
     18 H1        -23.0317   17.6300  -12.3430 H         1 <1>         0.0476 
     19 H2        -21.8363   18.7751  -11.6785 H         1 <1>         0.0476 
     20 H3        -22.5192   17.7101   -8.0450 H         1 <1>         0.0546 
     21 H4        -21.4919   18.7927   -9.0188 H         1 <1>         0.0546 
     22 H5        -19.8478   15.4787  -10.5109 H         1 <1>         0.0187 
     23 H6        -24.7831   18.9241  -10.8601 H         1 <1>         0.0239 
     24 H7        -23.4902   19.9108  -10.1280 H         1 <1>         0.0239 
     25 H8        -24.5690   18.9435   -9.0877 H         1 <1>         0.0239 
     26 H9        -23.2369   15.5399  -10.1159 H         1 <1>         0.0239 
     27 H10       -24.6336   16.3690  -10.8439 H         1 <1>         0.0239 
     28 H11       -24.4098   16.3844   -9.0764 H         1 <1>         0.0239 
     29 H12       -18.5493   15.5321   -8.5425 H         1 <1>         0.1219 
     30 H13       -18.6221   15.7066   -5.8853 H         1 <1>         0.0707 
     31 H14       -20.0209   12.2062   -4.8266 H         1 <1>         0.0347 
     32 H15       -19.6874   13.7893   -4.0607 H         1 <1>         0.0347 
     33 H16       -18.3364   12.8031   -4.7074 H         1 <1>         0.0347 
@<TRIPOS>BOND
     1    2    1 1    
     2    2    3 1    
     3    3    4 1    
     4    4    5 1    
     5    5    6 2    
     6    1    6 1    
     7    1    7 2    
     8    3    8 1    
     9    3    9 1    
    10    5   10 1    
    11   10   11 1    
    12   11   12 1    
    13   12   13 1    
    14   13   14 1    
    15   14   15 2    
    16   11   15 1    
    17   14   16 1    
    18   13   17 2    
    19    2   18 1    
    20    2   19 1    
    21    4   20 1    
    22    4   21 1    
    23    6   22 1    
    24    8   23 1    
    25    8   24 1    
    26    8   25 1    
    27    9   26 1    
    28    9   27 1    
    29    9   28 1    
    30   11   29 1    
    31   15   30 1    
    32   16   31 1    
    33   16   32 1    
    34   16   33 1    
@<TRIPOS>SUBSTRUCTURE
     1 ****        2 TEMP              0 ****  ****    0 ROOT 
@<TRIPOS>NORMAL
@<TRIPOS>FF_PBC
FORCE_FIELD_SETUP_FEATURE Force Field Setup information
v1.0  0 0.000000 0.000000 0.000000 0.000000 0.000000 0.000000 NONE 0 0 0 0 1 0 0 0 0 0 0 0 0
@<TRIPOS>RENDERING_ATTRS
ANTIALIASED_LINES 
*
