#	Name:			PISM00133
#	Creating user name:	malab
#	Creation time:		Thu Apr 04 11:00:27 2019

#	Modifying user name:	malab
#	Modification time:	Thu Apr 04 11:07:06 2019

@<TRIPOS>MOLECULE
PISM00133
   70    73     1     1     0
SMALL
GAST_HUCK


@<TRIPOS>ATOM
      1 C1         -0.3959    0.1907   -6.2717 C.ar      1 <1>        -0.0575 
      2 C2          0.2852    0.1914   -7.4924 C.ar      1 <1>        -0.0567 
      3 C3         -0.3412   -0.3049   -8.6392 C.ar      1 <1>        -0.0414 
      4 C4         -1.6351   -0.8290   -8.5520 C.ar      1 <1>         0.0643 
      5 C5         -2.2884   -0.8995   -7.3210 C.ar      1 <1>         0.0171 
      6 C6         -1.6911   -0.3298   -6.1905 C.ar      1 <1>        -0.0479 
      7 C7         -2.3827   -1.3250   -9.7674 C.2       1 <1>         0.2403 
      8 O8         -1.8524   -1.2342  -10.8639 O.2       1 <1>        -0.3805 
      9 N9         -3.5781   -1.8313   -9.6124 N.pl3     1 <1>        -0.1630 
     10 C10        -4.3138   -2.2959  -10.7830 C.3       1 <1>         0.0567 
     11 N11        -4.1697   -1.9606   -8.3984 N.2       1 <1>        -0.1772 
     12 C12        -3.6358   -1.5882   -7.3032 C.2       1 <1>         0.0803 
     13 C13        -4.3809   -1.8565   -6.0143 C.ar      1 <1>        -0.0109 
     14 C14        -3.7222   -2.3984   -4.9049 C.ar      1 <1>        -0.0605 
     15 C15        -4.3963   -2.5374   -3.6885 C.ar      1 <1>        -0.0310 
     16 C16        -5.7385   -2.1634   -3.5880 C.ar      1 <1>         0.0961 
     17 C17        -6.4268   -1.7228   -4.7210 C.ar      1 <1>        -0.0310 
     18 C18        -5.7473   -1.5687   -5.9334 C.ar      1 <1>        -0.0605 
     19 O19        -6.3852   -2.2217   -2.3536 O.3       1 <1>        -0.2964 
     20 C20        -6.3024   -0.9840   -1.6175 C.3       1 <1>         0.1596 
     21 C21        -6.9484   -1.0619   -0.2505 C.2       1 <1>         0.2095 
     22 O22        -7.5754   -2.0784    0.0008 O.2       1 <1>        -0.3939 
     23 N23        -6.8386   -0.0585    0.6704 N.am      1 <1>        -0.2708 
     24 C24        -6.0421    1.1422    0.3899 C.3       1 <1>         0.0363 
     25 C25        -6.6745    2.3997    1.0340 C.3       1 <1>        -0.0061 
     26 C26        -6.9669    2.1777    2.5357 C.3       1 <1>         0.0624 
     27 C27        -7.9616    0.9967    2.6627 C.3       1 <1>        -0.0061 
     28 C28        -7.3822   -0.2877    2.0149 C.3       1 <1>         0.0363 
     29 O29        -7.5310    3.4270    2.9906 O.3       1 <1>        -0.3763 
     30 C30        -7.6460    3.5997    4.4183 C.3       1 <1>         0.0502 
     31 C31        -6.3668    4.4106    6.5062 C.3       1 <1>         0.0508 
     32 C32        -5.0129    4.6056    7.1360 C.2       1 <1>         0.2338 
     33 O33        -4.0197    4.0299    6.7191 O.2       1 <1>        -0.3704 
     34 O34        -4.9884    5.4532    8.1744 O.3       1 <1>        -0.2771 
     35 C35        -6.2621    3.7393    5.1097 C.3       1 <1>        -0.0112 
     36 C36        -3.6717    5.6536    8.7268 C.3       1 <1>         0.0740 
     37 C37        -3.7818    6.6789    9.8801 C.3       1 <1>        -0.0371 
     38 H1          0.0820    0.5973   -5.3850 H         1 <1>         0.0650 
     39 H2          1.2977    0.5795   -7.5507 H         1 <1>         0.0625 
     40 H3          0.1759   -0.2809   -9.5937 H         1 <1>         0.0667 
     41 H4         -2.2231   -0.2753   -5.2476 H         1 <1>         0.0631 
     42 H5         -4.4475   -1.4687  -11.4972 H         1 <1>         0.0557 
     43 H6         -5.3065   -2.6705  -10.4905 H         1 <1>         0.0557 
     44 H7         -3.7614   -3.1118  -11.2738 H         1 <1>         0.0557 
     45 H8         -2.6875   -2.7170   -4.9856 H         1 <1>         0.0598 
     46 H9         -3.8825   -2.9335   -2.8187 H         1 <1>         0.0548 
     47 H10        -7.4863   -1.4974   -4.6535 H         1 <1>         0.0548 
     48 H11        -6.2811   -1.2188   -6.8119 H         1 <1>         0.0598 
     49 H12        -6.8069   -0.1977   -2.1994 H         1 <1>         0.0860 
     50 H13        -5.2379   -0.7383   -1.4817 H         1 <1>         0.0860 
     51 H14        -5.9418    1.3866   -0.6777 H         1 <1>         0.0523 
     52 H15        -5.0307    0.9876    0.7998 H         1 <1>         0.0523 
     53 H16        -7.6172    2.6422    0.5156 H         1 <1>         0.0310 
     54 H17        -5.9941    3.2610    0.9205 H         1 <1>         0.0310 
     55 H18        -6.0130    1.9393    3.0328 H         1 <1>         0.0597 
     56 H19        -8.9013    1.2703    2.1558 H         1 <1>         0.0310 
     57 H20        -8.1909    0.7883    3.7191 H         1 <1>         0.0310 
     58 H21        -8.1860   -1.0432    2.0324 H         1 <1>         0.0523 
     59 H22        -6.5583   -0.6659    2.6418 H         1 <1>         0.0523 
     60 H23        -8.2638    2.8284    4.9024 H         1 <1>         0.0561 
     61 H24        -8.1808    4.5571    4.5177 H         1 <1>         0.0561 
     62 H25        -6.9777    3.7898    7.1793 H         1 <1>         0.0519 
     63 H26        -6.8401    5.4004    6.4140 H         1 <1>         0.0519 
     64 H27        -5.6129    4.3581    4.4680 H         1 <1>         0.0313 
     65 H28        -5.7949    2.7486    5.2279 H         1 <1>         0.0313 
     66 H29        -2.9840    6.0510    7.9600 H         1 <1>         0.0610 
     67 H30        -3.2648    4.7049    9.1175 H         1 <1>         0.0610 
     68 H31        -4.1846    7.6292    9.4970 H         1 <1>         0.0255 
     69 H32        -2.7929    6.8665   10.3270 H         1 <1>         0.0255 
     70 H33        -4.4583    6.2972   10.6601 H         1 <1>         0.0255 
@<TRIPOS>BOND
     1    2    1 ar   
     2    2    3 ar   
     3    3    4 ar   
     4    4    5 ar   
     5    6    5 ar   
     6    1    6 ar   
     7    4    7 1    
     8    7    8 2    
     9    7    9 1    
    10    9   10 1    
    11    9   11 1    
    12   12   11 2    
    13    5   12 1    
    14   12   13 1    
    15   13   14 ar   
    16   14   15 ar   
    17   15   16 ar   
    18   17   16 ar   
    19   18   17 ar   
    20   13   18 ar   
    21   16   19 1    
    22   19   20 1    
    23   20   21 1    
    24   21   22 2    
    25   21   23 am   
    26   23   24 1    
    27   24   25 1    
    28   25   26 1    
    29   27   26 1    
    30   28   27 1    
    31   23   28 1    
    32   26   29 1    
    33   29   30 1    
    34   35   31 1    
    35   31   32 1    
    36   32   33 2    
    37   32   34 1    
    38   34   36 1    
    39   30   35 1    
    40   36   37 1    
    41    1   38 1    
    42    2   39 1    
    43    3   40 1    
    44    6   41 1    
    45   10   42 1    
    46   10   43 1    
    47   10   44 1    
    48   14   45 1    
    49   15   46 1    
    50   17   47 1    
    51   18   48 1    
    52   20   49 1    
    53   20   50 1    
    54   24   51 1    
    55   24   52 1    
    56   25   53 1    
    57   25   54 1    
    58   26   55 1    
    59   27   56 1    
    60   27   57 1    
    61   28   58 1    
    62   28   59 1    
    63   30   60 1    
    64   30   61 1    
    65   31   62 1    
    66   31   63 1    
    67   35   64 1    
    68   35   65 1    
    69   36   66 1    
    70   36   67 1    
    71   37   68 1    
    72   37   69 1    
    73   37   70 1    
@<TRIPOS>SUBSTRUCTURE
     1 ****        2 TEMP              0 ****  ****    0 ROOT 
@<TRIPOS>NORMAL
@<TRIPOS>FF_PBC
FORCE_FIELD_SETUP_FEATURE Force Field Setup information
v1.0  0 0.000000 0.000000 0.000000 0.000000 0.000000 0.000000 NONE 0 0 0 0 1 0 0 0 0 0 0 0 0
