#	Name:			PISM01010
#	Creating user name:	malab
#	Creation time:		Mon Jul 01 22:08:26 2019

#	Modifying user name:	malab
#	Modification time:	Mon Jul 01 22:09:56 2019

@<TRIPOS>MOLECULE
PISM01010
   41    43     1     1     0
SMALL
GAST_HUCK


@<TRIPOS>ATOM
      1 C1         17.0859   17.2333   28.8047 C.ar      1 <1>        -0.0645 
      2 C2         16.7394   16.0635   28.1271 C.ar      1 <1>        -0.0649 
      3 C3         15.3967   15.7812   27.8610 C.ar      1 <1>        -0.0587 
      4 C4         14.3756   16.6211   28.3302 C.ar      1 <1>        -0.0179 
      5 C5         14.7400   17.8430   28.9170 C.ar      1 <1>        -0.0236 
      6 C6         16.0848   18.1306   29.1818 C.ar      1 <1>        -0.0581 
      7 C7         13.0153   16.2827   28.2215 C.ar      1 <1>         0.0263 
      8 C8         12.0482   17.2731   28.4424 C.ar      1 <1>         0.1049 
      9 C9         12.4178   18.5163   28.9574 C.ar      1 <1>        -0.0252 
     10 C10        13.7579   18.7869   29.2361 C.ar      1 <1>        -0.0560 
     11 O11        10.7043   17.0361   28.1546 O.3       1 <1>        -0.3166 
     12 C12         9.9273   16.5531   29.2623 C.3       1 <1>         0.0612 
     13 C13        12.5600   14.8738   27.8923 C.2       1 <1>         0.0281 
     14 N14        11.3784   14.6589   27.4681 N.2       1 <1>        -0.2042 
     15 N15        10.9014   13.4268   27.1641 N.pl3     1 <1>        -0.1844 
     16 C16         9.6111   13.2281   27.1136 C.2       1 <1>         0.2316 
     17 O17         8.8288   14.1306   27.3657 O.2       1 <1>        -0.3705 
     18 C18         9.0019   11.8845   26.7585 C.ar      1 <1>         0.0367 
     19 C19         7.7420   11.5568   27.2734 C.ar      1 <1>        -0.0212 
     20 C20         7.1486   10.3174   27.0008 C.ar      1 <1>         0.1220 
     21 C21         7.8286    9.3812   26.2133 C.ar      1 <1>         0.1219 
     22 C22         9.0799    9.7108   25.6781 C.ar      1 <1>        -0.0349 
     23 C23         9.6499   10.9626   25.9274 C.ar      1 <1>        -0.0608 
     24 O24         5.8827    9.9968   27.5073 O.3       1 <1>        -0.3357 
     25 O25         7.2456    8.1311   25.9718 O.3       1 <1>        -0.3331 
     26 H1         18.1262   17.4456   29.0322 H         1 <1>         0.0590 
     27 H2         17.5151   15.3752   27.8047 H         1 <1>         0.0607 
     28 H3         15.1775   14.9003   27.2702 H         1 <1>         0.0596 
     29 H4         16.3657   19.0531   29.6808 H         1 <1>         0.0617 
     30 H5         11.6577   19.2684   29.1414 H         1 <1>         0.0587 
     31 H6         14.0237   19.7350   29.6938 H         1 <1>         0.0619 
     32 H7          9.9062   17.2940   30.0760 H         1 <1>         0.0582 
     33 H8         10.3258   15.6022   29.6478 H         1 <1>         0.0582 
     34 H9          8.8993   16.3844   28.9097 H         1 <1>         0.0582 
     35 H10        13.2291   14.0274   28.0351 H         1 <1>         0.0777 
     36 H11        11.5522   12.6504   26.9872 H         1 <1>         0.2297 
     37 H12         7.2211   12.2756   27.8974 H         1 <1>         0.0558 
     38 H13         9.6180    8.9981   25.0612 H         1 <1>         0.0525 
     39 H14        10.5949   11.2060   25.4547 H         1 <1>         0.0552 
     40 H15         5.4398   10.7080   27.9562 H         1 <1>         0.2443 
     41 H16         7.7607    7.5497   25.4243 H         1 <1>         0.2464 
@<TRIPOS>BOND
     1    2    1 ar   
     2    2    3 ar   
     3    3    4 ar   
     4    4    5 ar   
     5    5    6 ar   
     6    1    6 ar   
     7    4    7 ar   
     8    7    8 ar   
     9    8    9 ar   
    10    9   10 ar   
    11    5   10 ar   
    12    8   11 1    
    13   11   12 1    
    14    7   13 1    
    15   13   14 2    
    16   14   15 1    
    17   15   16 1    
    18   16   17 2    
    19   16   18 1    
    20   18   19 ar   
    21   19   20 ar   
    22   20   21 ar   
    23   21   22 ar   
    24   22   23 ar   
    25   18   23 ar   
    26   20   24 1    
    27   21   25 1    
    28    1   26 1    
    29    2   27 1    
    30    3   28 1    
    31    6   29 1    
    32    9   30 1    
    33   10   31 1    
    34   12   32 1    
    35   12   33 1    
    36   12   34 1    
    37   13   35 1    
    38   15   36 1    
    39   19   37 1    
    40   22   38 1    
    41   23   39 1    
    42   24   40 1    
    43   25   41 1    
@<TRIPOS>SUBSTRUCTURE
     1 ****        2 TEMP              0 ****  ****    0 ROOT 
@<TRIPOS>NORMAL
@<TRIPOS>FF_PBC
FORCE_FIELD_SETUP_FEATURE Force Field Setup information
v1.0  0 0.000000 0.000000 0.000000 0.000000 0.000000 0.000000 NONE 0 0 0 0 1 0 0 0 0 0 0 0 0
