#	Name:			PISM00715
#	Creating user name:	baoopengkun
#	Creation time:		Thu Jan 24 23:05:30 2019

#	Modifying user name:	baoopengkun
#	Modification time:	Thu Jan 24 23:06:40 2019

@<TRIPOS>MOLECULE
PISM00715
   83    86     1     1     0
SMALL
GAST_HUCK


@<TRIPOS>ATOM
      1 C1          0.6165    4.4803    8.4250 C.3       1 <1>        -0.0184 
      2 C2          0.0271    3.1903    9.0725 C.3       1 <1>         0.0816 
      3 C3          0.9009    1.9205    8.8291 C.3       1 <1>         0.0814 
      4 C4          2.4286    2.1554    9.0503 C.3       1 <1>        -0.0187 
      5 C5          2.8902    3.4463    8.3157 C.3       1 <1>        -0.0068 
      6 C6          2.1105    4.7185    8.8124 C.3       1 <1>        -0.0213 
      7 C7          2.7336    5.9974    8.1290 C.3       1 <1>        -0.0320 
      8 C8          3.4123    5.6721    6.7705 C.3       1 <1>        -0.0320 
      9 H1         -0.0086    5.3255    8.7517 H         1 <1>         0.0296 
     10 C10         4.6600    4.7715    7.0426 C.3       1 <1>        -0.0232 
     11 C11         4.4164    3.7411    8.1993 C.3       1 <1>         0.0589 
     12 O12         5.2009    2.5711    7.8997 O.3       1 <1>        -0.3915 
     13 C13         1.8316    7.2545    7.9864 C.3       1 <1>        -0.0489 
     14 C14         2.6868    8.5272    7.6586 C.3       1 <1>        -0.0468 
     15 C15         3.8998    8.2881    6.6855 C.3       1 <1>        -0.0258 
     16 C16         3.6166    6.9663    5.9170 C.3       1 <1>        -0.0322 
     17 C17         4.6407    6.9281    4.7646 C.3       1 <1>        -0.0492 
     18 C18         4.7865    8.4322    4.3906 C.3       1 <1>        -0.0491 
     19 C19         3.9995    9.2658    5.4578 C.3       1 <1>        -0.0304 
     20 O20        -1.3210    2.9734    8.6209 O.3       1 <1>        -0.3892 
     21 O21         0.6255    1.3418    7.5367 O.3       1 <1>        -0.3892 
     22 H2          0.5249    4.4098    7.3307 H         1 <1>         0.0296 
     23 C23         2.2156    4.9379   10.3657 C.3       1 <1>        -0.0589 
     24 C24         5.2679    8.2890    7.4485 C.3       1 <1>        -0.0590 
     25 C25         4.5781   10.7134    5.6504 C.3       1 <1>        -0.0120 
     26 C26         4.5704   11.4837    4.2854 C.3       1 <1>         0.0841 
     27 C27         5.1537   12.9371    4.3593 C.3       1 <1>         0.0841 
     28 C28         5.7215   13.4626    2.9887 C.3       1 <1>        -0.0130 
     29 C29         7.2731   13.2328    2.8510 C.3       1 <1>        -0.0417 
     30 C30         7.8387   13.7079    1.4771 C.3       1 <1>        -0.0623 
     31 C31         7.6985   11.7480    3.0542 C.3       1 <1>        -0.0623 
     32 C32         3.8000   11.5142    6.7344 C.3       1 <1>        -0.0597 
     33 O33         3.2159   11.5166    3.7873 O.3       1 <1>        -0.3890 
     34 O34         4.1510   13.8086    4.9163 O.3       1 <1>        -0.3890 
     35 C35         5.3681   14.9699    2.7928 C.3       1 <1>        -0.0597 
     36 H3         -0.0973    3.3402   10.1553 H         1 <1>         0.0619 
     37 H4          0.5659    1.1371    9.5309 H         1 <1>         0.0619 
     38 H5          2.9382    1.2671    8.6426 H         1 <1>         0.0295 
     39 H6          2.6846    2.2044   10.1179 H         1 <1>         0.0295 
     40 H7          2.6340    3.1919    7.2796 H         1 <1>         0.0332 
     41 H8          3.5404    6.3355    8.7899 H         1 <1>         0.0309 
     42 H9          2.7019    5.0821    6.1661 H         1 <1>         0.0307 
     43 H10         4.8862    4.2246    6.1120 H         1 <1>         0.0293 
     44 H11         5.5499    5.3681    7.2894 H         1 <1>         0.0293 
     45 H12         4.7798    4.1619    9.1521 H         1 <1>         0.0596 
     46 H13         5.2146    1.9252    8.5981 H         1 <1>         0.2098 
     47 H14         1.2666    7.4475    8.9122 H         1 <1>         0.0268 
     48 H15         1.0914    7.0667    7.1920 H         1 <1>         0.0268 
     49 H16         3.0676    8.9158    8.6170 H         1 <1>         0.0271 
     50 H17         1.9957    9.2830    7.2534 H         1 <1>         0.0271 
     51 H18         2.6497    7.1369    5.4028 H         1 <1>         0.0309 
     52 H19         4.2893    6.3071    3.9232 H         1 <1>         0.0268 
     53 H20         5.6013    6.5147    5.1072 H         1 <1>         0.0268 
     54 H21         4.3835    8.6137    3.3796 H         1 <1>         0.0268 
     55 H22         5.8564    8.6985    4.3813 H         1 <1>         0.0268 
     56 H23         2.9741    9.4083    5.0748 H         1 <1>         0.0310 
     57 H24        -1.3644    2.7565    7.6957 H         1 <1>         0.2099 
     58 H25         0.8202    1.9015    6.7946 H         1 <1>         0.2099 
     59 H26         1.8196    4.1239   10.9805 H         1 <1>         0.0235 
     60 H27         1.6579    5.8412   10.6517 H         1 <1>         0.0235 
     61 H28         3.2546    5.0765   10.6966 H         1 <1>         0.0235 
     62 H29         5.3303    7.5301    8.2334 H         1 <1>         0.0235 
     63 H30         5.4248    9.2536    7.9500 H         1 <1>         0.0235 
     64 H31         6.1234    8.1328    6.7785 H         1 <1>         0.0235 
     65 H32         5.6273   10.6330    5.9775 H         1 <1>         0.0327 
     66 H33         5.1699   10.9026    3.5723 H         1 <1>         0.0622 
     67 H34         5.9710   12.9841    5.0953 H         1 <1>         0.0622 
     68 H35         5.2226   12.9276    2.1648 H         1 <1>         0.0326 
     69 H36         7.7812   13.8240    3.6329 H         1 <1>         0.0299 
     70 H37         7.2589   13.2647    0.6532 H         1 <1>         0.0232 
     71 H38         8.8903   13.4054    1.3564 H         1 <1>         0.0232 
     72 H39         7.8240   14.8023    1.3773 H         1 <1>         0.0232 
     73 H40         7.4435   11.3754    4.0564 H         1 <1>         0.0232 
     74 H41         8.7897   11.6393    2.9527 H         1 <1>         0.0232 
     75 H42         7.2229   11.1087    2.2948 H         1 <1>         0.0232 
     76 H43         2.7610   11.6830    6.4137 H         1 <1>         0.0233 
     77 H44         4.2723   12.4868    6.9296 H         1 <1>         0.0233 
     78 H45         3.7886   10.9927    7.6973 H         1 <1>         0.0233 
     79 H46         3.1321   11.8567    2.9019 H         1 <1>         0.2099 
     80 H47         3.3137   13.7357    4.4697 H         1 <1>         0.2099 
     81 H48         5.6647   15.3421    1.8033 H         1 <1>         0.0233 
     82 H49         5.8645   15.5770    3.5650 H         1 <1>         0.0233 
     83 H50         4.2846   15.1456    2.8533 H         1 <1>         0.0233 
@<TRIPOS>BOND
     1    2    1 1    
     2    2    3 1    
     3    3    4 1    
     4    4    5 1    
     5    6    5 1    
     6    1    6 1    
     7    6    7 1    
     8    7    8 1    
     9   10    8 1    
    10    1    9 1    
    11   11   10 1    
    12   11   12 1    
    13    5   11 1    
    14    7   13 1    
    15   13   14 1    
    16   14   15 1    
    17   16   15 1    
    18    8   16 1    
    19   16   17 1    
    20   17   18 1    
    21   19   18 1    
    22   15   19 1    
    23    2   20 1    
    24    3   21 1    
    25    1   22 1    
    26    6   23 1    
    27   15   24 1    
    28   19   25 1    
    29   25   26 1    
    30   26   27 1    
    31   27   28 1    
    32   28   29 1    
    33   29   30 1    
    34   29   31 1    
    35   25   32 1    
    36   26   33 1    
    37   27   34 1    
    38   28   35 1    
    39    2   36 1    
    40    3   37 1    
    41    4   38 1    
    42    4   39 1    
    43    5   40 1    
    44    7   41 1    
    45    8   42 1    
    46   10   43 1    
    47   10   44 1    
    48   11   45 1    
    49   12   46 1    
    50   13   47 1    
    51   13   48 1    
    52   14   49 1    
    53   14   50 1    
    54   16   51 1    
    55   17   52 1    
    56   17   53 1    
    57   18   54 1    
    58   18   55 1    
    59   19   56 1    
    60   20   57 1    
    61   21   58 1    
    62   23   59 1    
    63   23   60 1    
    64   23   61 1    
    65   24   62 1    
    66   24   63 1    
    67   24   64 1    
    68   25   65 1    
    69   26   66 1    
    70   27   67 1    
    71   28   68 1    
    72   29   69 1    
    73   30   70 1    
    74   30   71 1    
    75   30   72 1    
    76   31   73 1    
    77   31   74 1    
    78   31   75 1    
    79   32   76 1    
    80   32   77 1    
    81   32   78 1    
    82   33   79 1    
    83   34   80 1    
    84   35   81 1    
    85   35   82 1    
    86   35   83 1    
@<TRIPOS>SUBSTRUCTURE
     1 ****        2 TEMP              0 ****  ****    0 ROOT 
@<TRIPOS>NORMAL
@<TRIPOS>FF_PBC
FORCE_FIELD_SETUP_FEATURE Force Field Setup information
v1.0  0 0.000000 0.000000 0.000000 0.000000 0.000000 0.000000 NONE 0 0 0 0 1 0 0 0 0 0 0 0 0
