#	Name:			PISM00014
#	Creating user name:	baoopengkun
#	Creation time:		Tue Dec 11 21:44:11 2018

#	Modifying user name:	baoopengkun
#	Modification time:	Tue Dec 11 21:45:24 2018

@<TRIPOS>MOLECULE
PISM00014
   18    18     1     1     0
SMALL
GAST_HUCK


@<TRIPOS>ATOM
      1 C1         13.3393  -14.8610   -8.4483 C.ar      1 <1>        -0.0011 
      2 C2         12.9714  -13.8689   -7.5296 C.ar      1 <1>         0.0429 
      3 C3         12.2985  -14.2055   -6.3520 C.ar      1 <1>        -0.0544 
      4 C4         11.9819  -15.5384   -6.0810 C.ar      1 <1>        -0.0677 
      5 C5         12.3387  -16.5309   -6.9967 C.ar      1 <1>        -0.0544 
      6 C6         13.0083  -16.1966   -8.1775 C.ar      1 <1>         0.0429 
      7 Cl7        13.3447  -12.1828   -7.8348 Cl        1 <1>        -0.0772 
      8 Cl8        13.4121  -17.4860   -9.2960 Cl        1 <1>        -0.0772 
      9 C9         14.0910  -14.4494   -9.7264 C.3       1 <1>         0.0501 
     10 N10        13.2707  -13.5862  -10.5547 N.2       1 <1>        -0.3120 
     11 C11        12.2258  -14.1729  -10.9947 C.2       1 <1>        -0.0090 
     12 H1         12.0218  -13.4283   -5.6468 H         1 <1>         0.0607 
     13 H2         11.4616  -15.8012   -5.1648 H         1 <1>         0.0560 
     14 H3         12.0940  -17.5681   -6.7907 H         1 <1>         0.0607 
     15 H4         14.4715  -15.2982  -10.3151 H         1 <1>         0.0587 
     16 H5         14.9721  -13.8636   -9.4234 H         1 <1>         0.0587 
     17 H6         11.9378  -15.2086  -10.8024 H         1 <1>         0.1111 
     18 H7         11.5578  -13.5842  -11.6217 H         1 <1>         0.1111 
@<TRIPOS>BOND
     1    2    1 ar   
     2    2    3 ar   
     3    3    4 ar   
     4    4    5 ar   
     5    5    6 ar   
     6    1    6 ar   
     7    2    7 1    
     8    6    8 1    
     9    1    9 1    
    10    9   10 1    
    11   10   11 2    
    12    3   12 1    
    13    4   13 1    
    14    5   14 1    
    15    9   15 1    
    16    9   16 1    
    17   11   17 1    
    18   11   18 1    
@<TRIPOS>SUBSTRUCTURE
     1 ****        2 TEMP              0 ****  ****    0 ROOT 
@<TRIPOS>NORMAL
@<TRIPOS>FF_PBC
FORCE_FIELD_SETUP_FEATURE Force Field Setup information
v1.0  0 0.000000 0.000000 0.000000 0.000000 0.000000 0.000000 NONE 0 0 0 0 1 0 0 0 0 0 0 0 0
