#	Name:			PISM00498
#	Creating user name:	baoopengkun
#	Creation time:		Mon Dec 17 15:44:23 2018

#	Modifying user name:	baoopengkun
#	Modification time:	Mon Dec 17 15:45:49 2018

@<TRIPOS>MOLECULE
PISM00498
   31    35     1     1     0
SMALL
GAST_HUCK


@<TRIPOS>ATOM
      1 Cl1        40.5508   -5.7233    7.0839 Cl        1 <1>        -0.0807 
      2 C2         40.2098   -4.2589    7.9825 C.ar      1 <1>         0.0288 
      3 C3         39.3522   -3.2932    7.4520 C.ar      1 <1>        -0.0565 
      4 C4         39.0747   -2.1310    8.1776 C.ar      1 <1>        -0.0341 
      5 C5         39.6476   -1.9140    9.4373 C.ar      1 <1>         0.0908 
      6 C6         40.5227   -2.8814    9.9517 C.ar      1 <1>        -0.0341 
      7 C7         40.7943   -4.0501    9.2334 C.ar      1 <1>        -0.0565 
      8 N8         39.3407   -0.7793   10.1183 N.pl3     1 <1>        -0.1520 
      9 N9         38.7114    0.2670    9.5529 N.2       1 <1>        -0.0579 
     10 N10        38.5040    1.2339   10.4587 N.2       1 <1>        -0.2186 
     11 C11        39.0311    0.8630   11.7500 C.3       1 <1>         0.0741 
     12 C12        39.6161   -0.5509   11.5314 C.3       1 <1>         0.1029 
     13 C13        37.8846    0.5922   12.7485 C.3       1 <1>         0.0041 
     14 C14        38.4699    0.2813   14.1496 C.3       1 <1>         0.0998 
     15 C15        39.0449   -1.1526   13.9304 C.3       1 <1>         0.1010 
     16 C16        38.6950   -1.4010   12.4413 C.3       1 <1>         0.0166 
     17 C17        37.2742   -0.7584   12.2157 C.3       1 <1>        -0.0392 
     18 N18        39.8317    0.6604   14.4194 N.2       1 <1>        -0.1862 
     19 N19        40.3222   -0.5651   14.2349 N.2       1 <1>        -0.1861 
     20 H1         38.9019   -3.4480    6.4767 H         1 <1>         0.0596 
     21 H2         38.4020   -1.3949    7.7498 H         1 <1>         0.0545 
     22 H3         41.0105   -2.7483   10.9095 H         1 <1>         0.0545 
     23 H4         41.4622   -4.7999    9.6456 H         1 <1>         0.0596 
     24 H5         39.7615    1.6166   12.0865 H         1 <1>         0.0490 
     25 H6         40.6923   -0.5910   11.7639 H         1 <1>         0.0656 
     26 H7         37.2695    1.5164   12.7639 H         1 <1>         0.0337 
     27 H8         37.7798    0.3593   15.0050 H         1 <1>         0.0587 
     28 H9         38.6808   -1.8949   14.6588 H         1 <1>         0.0588 
     29 H10        38.8651   -2.4634   12.1730 H         1 <1>         0.0351 
     30 H11        36.4149   -0.4530   12.8355 H         1 <1>         0.0273 
     31 H12        36.9109   -1.7109   12.6360 H         1 <1>         0.0273 
@<TRIPOS>BOND
     1    2    1 1    
     2    2    3 ar   
     3    3    4 ar   
     4    4    5 ar   
     5    5    6 ar   
     6    6    7 ar   
     7    2    7 ar   
     8    5    8 1    
     9    8    9 1    
    10    9   10 2    
    11   10   11 1    
    12   11   12 1    
    13    8   12 1    
    14   11   13 1    
    15   13   14 1    
    16   14   15 1    
    17   15   16 1    
    18   12   16 1    
    19   16   17 1    
    20   13   17 1    
    21   14   18 1    
    22   18   19 2    
    23   15   19 1    
    24    3   20 1    
    25    4   21 1    
    26    6   22 1    
    27    7   23 1    
    28   11   24 1    
    29   12   25 1    
    30   13   26 1    
    31   14   27 1    
    32   15   28 1    
    33   16   29 1    
    34   17   30 1    
    35   17   31 1    
@<TRIPOS>SUBSTRUCTURE
     1 ****        2 TEMP              0 ****  ****    0 ROOT 
@<TRIPOS>NORMAL
@<TRIPOS>FF_PBC
FORCE_FIELD_SETUP_FEATURE Force Field Setup information
v1.0  0 0.000000 0.000000 0.000000 0.000000 0.000000 0.000000 NONE 0 0 0 0 1 0 0 0 0 0 0 0 0
