#	Name:			PISM00339
#	Creating user name:	baoopengkun
#	Creation time:		Sun Mar 31 18:46:55 2019

#	Modifying user name:	baoopengkun
#	Modification time:	Sun Mar 31 18:50:16 2019

@<TRIPOS>MOLECULE
PISM00339
   58    58     1     1     0
SMALL
GAST_HUCK


@<TRIPOS>ATOM
      1 C1          1.9412   -0.5185  -11.6747 C.3       1 <1>        -0.0486 
      2 C2          1.1897   -1.7087  -11.0109 C.3       1 <1>         0.0225 
      3 C3          1.2740   -1.5937   -9.5160 C.2       1 <1>         0.1783 
      4 C4          1.3840   -0.2791   -8.8591 C.2       1 <1>         0.1080 
      5 C5          1.4332    0.8609   -9.5659 C.2       1 <1>        -0.0545 
      6 C6          1.4158    0.8350  -11.0802 C.3       1 <1>         0.0241 
      7 C7          3.4723   -0.7058  -11.4201 C.3       1 <1>        -0.0722 
      8 C8          1.6938   -0.5558  -13.2113 C.3       1 <1>        -0.0722 
      9 O9          1.2537   -2.6086   -8.8384 O.2       1 <1>        -0.3530 
     10 S10         1.4542   -0.2703   -7.0743 S.3       1 <1>        -0.0484 
     11 C11         1.4962    2.2362   -8.9308 C.3       1 <1>        -0.0414 
     12 C12        -0.0338    1.0906  -11.4395 C.2       1 <1>        -0.0993 
     13 C13        -0.4560    2.1434  -12.1530 C.2       1 <1>        -0.0245 
     14 C14        -1.8779    2.3446  -12.4965 C.2       1 <1>         0.0167 
     15 C15        -2.6042    1.2450  -13.2381 C.3       1 <1>        -0.0145 
     16 C16        -2.5303    3.4710  -12.1714 C.2       1 <1>         0.0580 
     17 C17        -1.9622    4.6181  -11.4232 C.2       1 <1>         0.2688 
     18 O18        -0.8287    4.5760  -10.9790 O.2       1 <1>        -0.3498 
     19 O19        -2.6685    5.7323  -11.2027 O.3       1 <1>        -0.2928 
     20 O20         2.1886    1.9363  -11.5901 O.3       1 <1>        -0.4725 
     21 C21         3.2736   -0.2179   -6.9804 C.3       1 <1>         0.0189 
     22 C22         3.6892   -0.0088   -5.5022 C.3       1 <1>        -0.0402 
     23 C23         5.2329    0.0759   -5.3582 C.3       1 <1>        -0.0520 
     24 C24         5.6489    0.3136   -3.8808 C.3       1 <1>        -0.0533 
     25 C25         7.1926    0.4050   -3.7341 C.3       1 <1>        -0.0559 
     26 C26         7.6054    0.6522   -2.2595 C.3       1 <1>        -0.0653 
     27 H1          1.6402   -2.6632  -11.3249 H         1 <1>         0.0479 
     28 H2          0.1291   -1.7511  -11.2951 H         1 <1>         0.0479 
     29 H3          3.7974   -1.7188  -11.7019 H         1 <1>         0.0220 
     30 H4          3.7226   -0.5525  -10.3600 H         1 <1>         0.0220 
     31 H5          4.0712   -0.0082  -12.0230 H         1 <1>         0.0220 
     32 H6          2.1893    0.2990  -13.6967 H         1 <1>         0.0220 
     33 H7          0.6198   -0.5083  -13.4457 H         1 <1>         0.0220 
     34 H8          2.0970   -1.4846  -13.6440 H         1 <1>         0.0220 
     35 H9          1.1698    2.2549   -7.8817 H         1 <1>         0.0386 
     36 H10         0.8470    2.9325   -9.4845 H         1 <1>         0.0386 
     37 H11         2.5280    2.6144   -8.9757 H         1 <1>         0.0386 
     38 H12        -0.7896    0.3886  -11.0889 H         1 <1>         0.0493 
     39 H13         0.2472    2.8969  -12.5078 H         1 <1>         0.1042 
     40 H14        -2.8851    1.6067  -14.2385 H         1 <1>         0.0429 
     41 H15        -3.5156    0.9531  -12.6936 H         1 <1>         0.0429 
     42 H16        -1.9731    0.3517  -13.3611 H         1 <1>         0.0429 
     43 H17        -3.5724    3.5483  -12.4782 H         1 <1>         0.0917 
     44 H18        -3.5480    5.7311  -11.5575 H         1 <1>         0.2516 
     45 H19         3.0919    1.9509  -11.2976 H         1 <1>         0.1785 
     46 H20         3.6487    0.6128   -7.5981 H         1 <1>         0.0422 
     47 H21         3.6781   -1.1654   -7.3705 H         1 <1>         0.0422 
     48 H22         3.3037   -0.8449   -4.8953 H         1 <1>         0.0276 
     49 H23         3.2345    0.9255   -5.1336 H         1 <1>         0.0276 
     50 H24         5.6116    0.9043   -5.9794 H         1 <1>         0.0266 
     51 H25         5.6842   -0.8624   -5.7208 H         1 <1>         0.0266 
     52 H26         5.2709   -0.5134   -3.2569 H         1 <1>         0.0265 
     53 H27         5.1956    1.2524   -3.5224 H         1 <1>         0.0265 
     54 H28         7.5747    1.2309   -4.3573 H         1 <1>         0.0263 
     55 H29         7.6531   -0.5337   -4.0854 H         1 <1>         0.0263 
     56 H30         7.2523   -0.1696   -1.6174 H         1 <1>         0.0230 
     57 H31         7.1745    1.5968   -1.8934 H         1 <1>         0.0230 
     58 H32         8.7021    0.7133   -2.1783 H         1 <1>         0.0230 
@<TRIPOS>BOND
     1    2    1 1    
     2    2    3 1    
     3    3    4 1    
     4    4    5 2    
     5    5    6 1    
     6    1    6 1    
     7    1    7 1    
     8    1    8 1    
     9    3    9 2    
    10    4   10 1    
    11    5   11 1    
    12    6   12 1    
    13   12   13 2    
    14   13   14 1    
    15   14   15 1    
    16   14   16 2    
    17   16   17 1    
    18   17   18 2    
    19   17   19 1    
    20    6   20 1    
    21   10   21 1    
    22   21   22 1    
    23   22   23 1    
    24   23   24 1    
    25   24   25 1    
    26   25   26 1    
    27    2   27 1    
    28    2   28 1    
    29    7   29 1    
    30    7   30 1    
    31    7   31 1    
    32    8   32 1    
    33    8   33 1    
    34    8   34 1    
    35   11   35 1    
    36   11   36 1    
    37   11   37 1    
    38   12   38 1    
    39   13   39 1    
    40   15   40 1    
    41   15   41 1    
    42   15   42 1    
    43   16   43 1    
    44   19   44 1    
    45   20   45 1    
    46   21   46 1    
    47   21   47 1    
    48   22   48 1    
    49   22   49 1    
    50   23   50 1    
    51   23   51 1    
    52   24   52 1    
    53   24   53 1    
    54   25   54 1    
    55   25   55 1    
    56   26   56 1    
    57   26   57 1    
    58   26   58 1    
@<TRIPOS>SUBSTRUCTURE
     1 ****        2 TEMP              0 ****  ****    0 ROOT 
@<TRIPOS>NORMAL
@<TRIPOS>FF_PBC
FORCE_FIELD_SETUP_FEATURE Force Field Setup information
v1.0  0 0.000000 0.000000 0.000000 0.000000 0.000000 0.000000 NONE 0 0 0 0 1 0 0 0 0 0 0 0 0
