#	Name:			PISM00955.1
#	Creating user name:	baoopengkun
#	Creation time:		Thu Dec 13 10:20:57 2018

#	Modifying user name:	baoopengkun
#	Modification time:	Thu Dec 13 10:23:40 2018

@<TRIPOS>MOLECULE
PISM00955.1
   38    39     1     1     0
SMALL
GAST_HUCK


@<TRIPOS>ATOM
      1 C1         -9.9131    9.2652   -3.4687 C.3       1 <1>        -0.0575 
      2 C2        -11.0330    9.8669   -2.5650 C.3       1 <1>        -0.0059 
      3 C3        -11.0500   11.4143   -2.7803 C.3       1 <1>        -0.0575 
      4 C4        -10.6462    9.6162   -1.0763 C.3       1 <1>        -0.0575 
      5 C5        -12.4412    9.2595   -2.9266 C.3       1 <1>         0.1219 
      6 C6        -12.6772    7.7846   -2.4704 C.3       1 <1>         0.2332 
      7 N7        -12.8497    7.6728   -1.0281 N.pl3     1 <1>        -0.1431 
      8 N8        -13.4298    8.5855   -0.1979 N.2       1 <1>        -0.1875 
      9 C9        -13.4315    8.2235    1.0308 C.2       1 <1>         0.0619 
     10 N10       -12.7809    6.9463    0.9339 N.2       1 <1>        -0.2869 
     11 C11       -12.4798    6.6952   -0.2579 C.2       1 <1>         0.1311 
     12 O12       -12.6393    9.3023   -4.3559 O.3       1 <1>        -0.3851 
     13 O13       -13.9184    7.2326   -2.9546 O.3       1 <1>        -0.2786 
     14 C14       -14.0735    7.1023   -4.3346 C.ar      1 <1>         0.0956 
     15 C15       -13.2938    6.1925   -5.0556 C.ar      1 <1>        -0.0323 
     16 C16       -13.4305    6.1013   -6.4440 C.ar      1 <1>        -0.0567 
     17 C17       -14.3629    6.9020   -7.1096 C.ar      1 <1>         0.0285 
     18 C18       -15.1638    7.7900   -6.3861 C.ar      1 <1>        -0.0567 
     19 C19       -15.0199    7.8870   -4.9990 C.ar      1 <1>        -0.0323 
     20 Cl20      -14.5284    6.7918   -8.8500 Cl        1 <1>        -0.0810 
     21 H1         -9.7950    8.1847   -3.3079 H         1 <1>         0.0236 
     22 H2         -8.9450    9.7402   -3.2467 H         1 <1>         0.0236 
     23 H3        -10.1309    9.4326   -4.5341 H         1 <1>         0.0236 
     24 H4        -11.8527   11.8787   -2.1872 H         1 <1>         0.0236 
     25 H5        -11.1981   11.6856   -3.8349 H         1 <1>         0.0236 
     26 H6        -10.0960   11.8649   -2.4653 H         1 <1>         0.0236 
     27 H7        -10.5253    8.5447   -0.8658 H         1 <1>         0.0236 
     28 H8        -11.4072   10.0350   -0.4021 H         1 <1>         0.0236 
     29 H9         -9.6865   10.0988   -0.8355 H         1 <1>         0.0236 
     30 H10       -13.2422    9.8395   -2.4377 H         1 <1>         0.0661 
     31 H11       -11.8442    7.1527   -2.8070 H         1 <1>         0.1080 
     32 H12       -13.8197    8.7420    1.9063 H         1 <1>         0.0864 
     33 H13       -11.9798    5.7806   -0.5749 H         1 <1>         0.1362 
     34 H14       -12.7087   10.1752   -4.7260 H         1 <1>         0.2101 
     35 H15       -12.5850    5.5537   -4.5401 H         1 <1>         0.0543 
     36 H16       -12.8142    5.4083   -7.0075 H         1 <1>         0.0595 
     37 H17       -15.8950    8.4034   -6.9024 H         1 <1>         0.0595 
     38 H18       -15.6381    8.5742   -4.4313 H         1 <1>         0.0543 
@<TRIPOS>BOND
     1    2    1 1    
     2    2    3 1    
     3    2    4 1    
     4    2    5 1    
     5    5    6 1    
     6    6    7 1    
     7    7    8 1    
     8    8    9 2    
     9    9   10 1    
    10   10   11 2    
    11    7   11 1    
    12    5   12 1    
    13    6   13 1    
    14   13   14 1    
    15   14   15 ar   
    16   15   16 ar   
    17   16   17 ar   
    18   17   18 ar   
    19   18   19 ar   
    20   14   19 ar   
    21   17   20 1    
    22    1   21 1    
    23    1   22 1    
    24    1   23 1    
    25    3   24 1    
    26    3   25 1    
    27    3   26 1    
    28    4   27 1    
    29    4   28 1    
    30    4   29 1    
    31    5   30 1    
    32    6   31 1    
    33    9   32 1    
    34   11   33 1    
    35   12   34 1    
    36   15   35 1    
    37   16   36 1    
    38   18   37 1    
    39   19   38 1    
@<TRIPOS>SUBSTRUCTURE
     1 ****        2 TEMP              0 ****  ****    0 ROOT 
@<TRIPOS>NORMAL
@<TRIPOS>FF_PBC
FORCE_FIELD_SETUP_FEATURE Force Field Setup information
v1.0  0 0.000000 0.000000 0.000000 0.000000 0.000000 0.000000 NONE 0 0 0 0 1 0 0 0 0 0 0 0 0
