#	Name:			PISM00727
#	Creating user name:	baoopengkun
#	Creation time:		Sun Jan 20 21:58:07 2019

#	Modifying user name:	baoopengkun
#	Modification time:	Sun Jan 20 22:10:08 2019

@<TRIPOS>MOLECULE
PISM00727
   83    86     1     1     0
SMALL
GAST_HUCK


@<TRIPOS>ATOM
      1 C1         -4.7363    6.0130    0.8083 C.3       1 <1>        -0.0163 
      2 C2         -5.7835    4.9064    1.1311 C.3       1 <1>         0.0819 
      3 C3         -5.2709    3.9659    2.2553 C.3       1 <1>         0.0835 
      4 C4         -4.9062    4.7848    3.5238 C.3       1 <1>        -0.0028 
      5 C5         -3.8217    5.8369    3.1515 C.3       1 <1>         0.0681 
      6 C6         -4.2919    6.8516    2.0511 C.3       1 <1>        -0.0055 
      7 C7         -3.1176    7.8535    1.7007 C.3       1 <1>        -0.0276 
      8 C8         -1.7009    7.1920    1.7368 C.3       1 <1>        -0.0063 
      9 C9         -1.2155    6.9860    3.2147 C.3       1 <1>         0.0801 
     10 O10        -2.1387    7.2713    4.2939 O.3       1 <1>        -0.2763 
     11 C11        -3.3054    6.6027    4.3424 C.2       1 <1>         0.2374 
     12 O12        -3.9618    6.6401    5.3689 O.2       1 <1>        -0.3701 
     13 C13        -3.2973    8.6689    0.3824 C.3       1 <1>        -0.0487 
     14 C14        -2.2611    9.8377    0.2735 C.3       1 <1>        -0.0468 
     15 C15        -0.8049    9.4719    0.7342 C.3       1 <1>        -0.0257 
     16 C16        -0.7074    7.9225    0.7686 C.3       1 <1>        -0.0298 
     17 C17         0.8006    7.5824    0.8375 C.3       1 <1>        -0.0491 
     18 C18         1.4602    8.7645    0.0700 C.3       1 <1>        -0.0491 
     19 C19         0.3322    9.7809   -0.3051 C.3       1 <1>        -0.0304 
     20 O20        -6.0487    4.1083   -0.0401 O.3       1 <1>        -0.3892 
     21 O21        -4.1121    3.2526    1.7785 O.3       1 <1>        -0.3891 
     22 C22         5.1521   12.3174   -1.1874 C.3       1 <1>        -0.0156 
     23 C23        -5.5031    7.7021    2.5750 C.3       1 <1>        -0.0568 
     24 C24        -0.4684   10.1215    2.1158 C.3       1 <1>        -0.0590 
     25 C25         0.8610   11.2516   -0.4547 C.3       1 <1>        -0.0120 
     26 C26         2.0242   11.3141   -1.5064 C.3       1 <1>         0.0841 
     27 C27         2.6274   12.7418   -1.7226 C.3       1 <1>         0.0842 
     28 C28         4.0910   12.6949   -2.2877 C.3       1 <1>        -0.0107 
     29 C29         6.3781   11.5487   -1.7666 C.3       1 <1>         0.0471 
     30 O30         7.1438   12.3854   -2.6498 O.3       1 <1>        -0.3947 
     31 C31         5.6301   13.5284   -0.3353 C.3       1 <1>        -0.0600 
     32 C32        -0.2776   12.2590   -0.7909 C.3       1 <1>        -0.0597 
     33 O33         1.6391   10.7535   -2.7731 O.3       1 <1>        -0.3890 
     34 O34         1.7140   13.3940   -2.6318 O.3       1 <1>        -0.3890 
     35 C35         4.4665   14.0131   -3.0298 C.3       1 <1>        -0.0597 
     36 H1         -5.1783    6.6743    0.0477 H         1 <1>         0.0298 
     37 H2         -3.8661    5.5156    0.3553 H         1 <1>         0.0298 
     38 H3         -6.7423    5.3502    1.4481 H         1 <1>         0.0619 
     39 H4         -6.0723    3.2409    2.4851 H         1 <1>         0.0621 
     40 H5         -4.5011    4.0965    4.2848 H         1 <1>         0.0319 
     41 H6         -5.8019    5.2401    3.9680 H         1 <1>         0.0319 
     42 H7         -3.0038    5.1930    2.8084 H         1 <1>         0.0560 
     43 H8         -3.1155    8.6314    2.4776 H         1 <1>         0.0311 
     44 H9         -1.7653    6.1931    1.2746 H         1 <1>         0.0332 
     45 H10        -0.4177    7.6956    3.4561 H         1 <1>         0.0616 
     46 H11        -0.7808    5.9825    3.3563 H         1 <1>         0.0616 
     47 H12        -4.2982    9.1190    0.3099 H         1 <1>         0.0268 
     48 H13        -3.2041    7.9922   -0.4812 H         1 <1>         0.0268 
     49 H14        -2.6383   10.6720    0.8873 H         1 <1>         0.0271 
     50 H15        -2.2722   10.1781   -0.7739 H         1 <1>         0.0271 
     51 H16        -0.9702    7.5946   -0.2562 H         1 <1>         0.0310 
     52 H17         1.0189    6.6039    0.3755 H         1 <1>         0.0268 
     53 H18         1.1869    7.5446    1.8653 H         1 <1>         0.0268 
     54 H19         1.9754    8.3953   -0.8334 H         1 <1>         0.0268 
     55 H20         2.2136    9.2395    0.7205 H         1 <1>         0.0268 
     56 H21        -0.0435    9.4949   -1.3031 H         1 <1>         0.0310 
     57 H22        -6.3806    4.6090   -0.7789 H         1 <1>         0.2099 
     58 H23        -3.7830    2.6035    2.3924 H         1 <1>         0.2099 
     59 H24         4.6970   11.6238   -0.4632 H         1 <1>         0.0324 
     60 H25        -5.8559    8.4112    1.8154 H         1 <1>         0.0237 
     61 H26        -5.2195    8.2838    3.4653 H         1 <1>         0.0237 
     62 H27        -6.3810    7.1134    2.8582 H         1 <1>         0.0237 
     63 H28         0.5330    9.8427    2.4721 H         1 <1>         0.0235 
     64 H29        -1.1952    9.8448    2.8889 H         1 <1>         0.0235 
     65 H30        -0.4980   11.2172    2.0509 H         1 <1>         0.0235 
     66 H31         1.2966   11.5632    0.5087 H         1 <1>         0.0327 
     67 H32         2.8163   10.6420   -1.1596 H         1 <1>         0.0622 
     68 H33         2.6390   13.2781   -0.7597 H         1 <1>         0.0622 
     69 H34         4.0894   11.9051   -3.0574 H         1 <1>         0.0327 
     70 H35         6.0301   10.6489   -2.3035 H         1 <1>         0.0560 
     71 H36         7.0248   11.2166   -0.9353 H         1 <1>         0.0560 
     72 H37         7.9016   11.9473   -3.0263 H         1 <1>         0.2094 
     73 H38         6.2547   13.1804    0.5026 H         1 <1>         0.0233 
     74 H39         4.7777   14.0814    0.0863 H         1 <1>         0.0233 
     75 H40         6.2377   14.2209   -0.9359 H         1 <1>         0.0233 
     76 H41        -0.7397   12.0228   -1.7602 H         1 <1>         0.0233 
     77 H42         0.0983   13.2910   -0.8221 H         1 <1>         0.0233 
     78 H43        -1.0635   12.2523   -0.0273 H         1 <1>         0.0233 
     79 H44         1.0392   11.3320   -3.2329 H         1 <1>         0.2099 
     80 H45         1.8439   14.3327   -2.7177 H         1 <1>         0.2099 
     81 H46         5.5171   14.0174   -3.3494 H         1 <1>         0.0233 
     82 H47         4.2994   14.8853   -2.3797 H         1 <1>         0.0233 
     83 H48         3.8607   14.1362   -3.9417 H         1 <1>         0.0233 
@<TRIPOS>BOND
     1    2    1 1    
     2    2    3 1    
     3    3    4 1    
     4    4    5 1    
     5    6    5 1    
     6    1    6 1    
     7    6    7 1    
     8    7    8 1    
     9    8    9 1    
    10   10    9 1    
    11   11   10 1    
    12   11   12 2    
    13    5   11 1    
    14    7   13 1    
    15   13   14 1    
    16   14   15 1    
    17   16   15 1    
    18    8   16 1    
    19   16   17 1    
    20   17   18 1    
    21   19   18 1    
    22   15   19 1    
    23    2   20 1    
    24    3   21 1    
    25   28   22 1    
    26    6   23 1    
    27   15   24 1    
    28   19   25 1    
    29   25   26 1    
    30   26   27 1    
    31   27   28 1    
    32   22   29 1    
    33   29   30 1    
    34   22   31 1    
    35   25   32 1    
    36   26   33 1    
    37   27   34 1    
    38   28   35 1    
    39    1   36 1    
    40    1   37 1    
    41    2   38 1    
    42    3   39 1    
    43    4   40 1    
    44    4   41 1    
    45    5   42 1    
    46    7   43 1    
    47    8   44 1    
    48    9   45 1    
    49    9   46 1    
    50   13   47 1    
    51   13   48 1    
    52   14   49 1    
    53   14   50 1    
    54   16   51 1    
    55   17   52 1    
    56   17   53 1    
    57   18   54 1    
    58   18   55 1    
    59   19   56 1    
    60   20   57 1    
    61   21   58 1    
    62   22   59 1    
    63   23   60 1    
    64   23   61 1    
    65   23   62 1    
    66   24   63 1    
    67   24   64 1    
    68   24   65 1    
    69   25   66 1    
    70   26   67 1    
    71   27   68 1    
    72   28   69 1    
    73   29   70 1    
    74   29   71 1    
    75   30   72 1    
    76   31   73 1    
    77   31   74 1    
    78   31   75 1    
    79   32   76 1    
    80   32   77 1    
    81   32   78 1    
    82   33   79 1    
    83   34   80 1    
    84   35   81 1    
    85   35   82 1    
    86   35   83 1    
@<TRIPOS>SUBSTRUCTURE
     1 ****        2 TEMP              0 ****  ****    0 ROOT 
@<TRIPOS>NORMAL
@<TRIPOS>FF_PBC
FORCE_FIELD_SETUP_FEATURE Force Field Setup information
v1.0  0 0.000000 0.000000 0.000000 0.000000 0.000000 0.000000 NONE 0 0 0 0 1 0 0 0 0 0 0 0 0
