#	Name:			PISM00158
#	Creating user name:	14062
#	Creation time:		Wed Jun 19 21:23:12 2019

#	Modifying user name:	14062
#	Modification time:	Wed Jun 19 21:25:04 2019

@<TRIPOS>MOLECULE
PISM00158
   19    19     1     1     0
SMALL
GAST_HUCK


@<TRIPOS>ATOM
      1 O1         -2.8169    1.7362   -0.1512 O.3       1 BENZYL     -0.2953 
      2 C1         -1.8024    0.8689   -0.1875 C.2       1 BENZYL      0.2549 
      3 C2         -0.8797    0.7247   -1.3802 C.ar      1 BENZYL      0.1045 
      4 C3         -1.3948    0.6021   -2.6764 C.ar      1 BENZYL      0.0540 
      5 C4         -0.5292    0.5426   -3.7719 C.ar      1 BENZYL     -0.0524 
      6 C5          0.8537    0.5674   -3.5751 C.ar      1 BENZYL     -0.0514 
      7 C6          1.3709    0.6516   -2.2801 C.ar      1 BENZYL      0.0745 
      8 C7          0.5057    0.7128   -1.1825 C.ar      1 BENZYL      0.1285 
      9 O9         -1.6252    0.1711    0.7958 O.2       1 BENZYL     -0.3638 
     10 O10         1.0274    0.7785    0.1103 O.3       1 BENZYL     -0.3146 
     11 C11         1.3896   -0.4926    0.6776 C.3       1 BENZYL      0.0615 
     12 Cl12       -3.1232    0.5043   -2.9541 Cl        1 BENZYL     -0.0671 
     13 Cl13        3.1070    0.6882   -2.0439 Cl        1 BENZYL     -0.0772 
     14 H1         -2.8549    2.3046   -0.9096 H         1 BENZYL      0.2520 
     15 H2         -0.9330    0.4743   -4.7773 H         1 BENZYL      0.0543 
     16 H3          1.5269    0.5213   -4.4255 H         1 BENZYL      0.0632 
     17 H4          1.7540   -0.3167    1.7003 H         1 BENZYL      0.0582 
     18 H5          2.1906   -0.9762    0.0984 H         1 BENZYL      0.0582 
     19 H6          0.5246   -1.1716    0.7262 H         1 BENZYL      0.0582 
@<TRIPOS>BOND
     1    2    3 1    
     2    3    4 ar   
     3    3    8 ar   
     4    8    7 ar   
     5    7    6 ar   
     6    6    5 ar   
     7    5    4 ar   
     8    2    1 1    
     9    2    9 2    
    10    8   10 1    
    11   10   11 1    
    12    4   12 1    
    13    7   13 1    
    14    1   14 1    
    15    5   15 1    
    16    6   16 1    
    17   11   17 1    
    18   11   18 1    
    19   11   19 1    
@<TRIPOS>SUBSTRUCTURE
     1 BENZYL      2 PERM              0 ****  ****    0 ROOT 
@<TRIPOS>NORMAL
@<TRIPOS>FF_PBC
FORCE_FIELD_SETUP_FEATURE Force Field Setup information
v1.0  0 0.000000 0.000000 0.000000 0.000000 0.000000 0.000000 NONE 0 0 0 0 1 0 0 0 0 0 0 0 0
