#	Name:			PISM00591
#	Creating user name:	baoopengkun
#	Creation time:		Mon Dec 10 12:08:56 2018

#	Modifying user name:	baoopengkun
#	Modification time:	Mon Dec 10 12:09:11 2018

@<TRIPOS>MOLECULE
PISM00591
   30    32     1     2     0
SMALL
GAST_HUCK


@<TRIPOS>ATOM
      1 C1         -2.9480   10.9484   -0.6291 C.ar      1 <1>        -0.0348 
      2 C2         -2.3474   10.0487    0.2563 C.ar      1 <1>        -0.0180 
      3 C3         -1.2676    9.2675   -0.1647 C.ar      1 <1>         0.0714 
      4 C4         -0.7880    9.3867   -1.4719 C.ar      1 <1>        -0.0180 
      5 C5         -1.3882   10.2870   -2.3564 C.ar      1 <1>        -0.0348 
      6 C6         -2.4673   11.0716   -1.9366 C.ar      1 <1>         0.0068 
      7 C7         -3.1182   12.0560   -2.9169 C.3       1 <1>         0.1918 
      8 C8         -4.2179   11.3343   -3.7260 C.3       1 <1>         0.1073 
      9 N9         -3.7137   10.0761   -4.2591 N.pl3     1 <1>        -0.1814 
     10 N10        -3.0900    9.8919   -5.4562 N.2       1 <1>        -0.1908 
     11 C11        -2.7681    8.6711   -5.6741 C.2       1 <1>         0.0618 
     12 N12        -3.2613    8.0449   -4.4784 N.2       1 <1>        -0.2870 
     13 C13        -3.7897    8.8961   -3.7231 C.2       1 <1>         0.1270 
     14 O14        -3.6327   13.2217   -2.2617 O.3       1 <1>        -0.3818 
     15 C15        -2.5053   14.0301   -1.9003 C.3       1 <1>         0.0618 
     16 C16        -1.4427   13.6318   -2.9542 C.3       1 <1>         0.0618 
     17 O17        -2.1481   12.6843   -3.7634 O.3       1 <1>        -0.3818 
     18 Cl18       -0.5165    8.1396    0.9453 Cl        1 <1>        -0.0420 
     19 H1         -3.7894   11.5508   -0.3007 H         1 <1>         0.0849 
     20 H2         -2.7182    9.9548    1.2719 H         1 <1>         0.0703 
     21 H3          0.0497    8.7792   -1.7989 H         1 <1>         0.0703 
     22 H4         -1.0187   10.3746   -3.3741 H         1 <1>         0.0849 
     23 H5         -4.5369   11.9864   -4.5524 H         1 <1>         0.0595 
     24 H6         -5.0817   11.1518   -3.0690 H         1 <1>         0.0595 
     25 H7         -2.2615    8.2318   -6.5319 H         1 <1>         0.0863 
     26 H8         -4.2394    8.6585   -2.7598 H         1 <1>         0.1361 
     27 H9         -2.1722   13.7788   -0.8801 H         1 <1>         0.0572 
     28 H10        -2.7833   15.0945   -1.9416 H         1 <1>         0.0572 
     29 H11        -0.5736   13.1436   -2.4836 H         1 <1>         0.0572 
     30 H12        -1.0974   14.4745   -3.5728 H         1 <1>         0.0572 
@<TRIPOS>BOND
     1    2    1 ar   
     2    2    3 ar   
     3    3    4 ar   
     4    4    5 ar   
     5    5    6 ar   
     6    1    6 ar   
     7    6    7 1    
     8    7    8 1    
     9    8    9 1    
    10    9   10 1    
    11   10   11 2    
    12   11   12 1    
    13   12   13 2    
    14    9   13 1    
    15    7   14 1    
    16   14   15 1    
    17   15   16 1    
    18   16   17 1    
    19    7   17 1    
    20    3   18 1    
    21    1   19 1    
    22    2   20 1    
    23    4   21 1    
    24    5   22 1    
    25    8   23 1    
    26    8   24 1    
    27   11   25 1    
    28   13   26 1    
    29   15   27 1    
    30   15   28 1    
    31   16   29 1    
    32   16   30 1    
@<TRIPOS>SUBSTRUCTURE
     1 ****        2 TEMP              0 ****  ****    0 ROOT 
@<TRIPOS>NORMAL
@<TRIPOS>FF_PBC
FORCE_FIELD_SETUP_FEATURE Force Field Setup information
v1.0  0 0.000000 0.000000 0.000000 0.000000 0.000000 0.000000 NONE 0 0 0 0 1 0 0 0 0 0 0 0 0
@<TRIPOS>RENDERING_ATTRS
ANTIALIASED_LINES 
*
