#	Name:			PISM00492
#	Creating user name:	baoopengkun
#	Creation time:		Wed Feb 27 21:15:06 2019

#	Modifying user name:	baoopengkun
#	Modification time:	Wed Feb 27 21:15:44 2019

@<TRIPOS>MOLECULE
PISM00492
   13    13     1     1     0
SMALL
GAST_HUCK


@<TRIPOS>ATOM
      1 C1         23.1481    7.8136   -7.3984 C.3       1 <1>        -0.0540 
      2 C2         24.2542    6.7331   -7.3181 C.3       1 <1>        -0.0232 
      3 C3         25.6041    7.3621   -7.5121 C.2       1 <1>        -0.0707 
      4 C4         26.3886    8.4360   -6.8275 C.3       1 <1>        -0.0205 
      5 C5         26.7732    7.5722   -8.0593 C.2       1 <1>        -0.0948 
      6 H1         23.2958    8.5690   -6.6106 H         1 <1>         0.0256 
      7 H2         22.1564    7.3532   -7.2649 H         1 <1>         0.0256 
      8 H3         23.1770    8.3142   -8.3790 H         1 <1>         0.0256 
      9 H4         24.1027    5.9730   -8.1007 H         1 <1>         0.0449 
     10 H5         24.2315    6.2376   -6.3346 H         1 <1>         0.0449 
     11 H6         26.8311    8.1849   -5.8524 H         1 <1>         0.0331 
     12 H7         26.0629    9.4730   -6.9956 H         1 <1>         0.0331 
     13 H8         27.4992    7.3202   -8.8308 H         1 <1>         0.0304 
@<TRIPOS>BOND
     1    2    1 1    
     2    2    3 1    
     3    3    4 1    
     4    4    5 1    
     5    3    5 2    
     6    1    6 1    
     7    1    7 1    
     8    1    8 1    
     9    2    9 1    
    10    2   10 1    
    11    4   11 1    
    12    4   12 1    
    13    5   13 1    
@<TRIPOS>SUBSTRUCTURE
     1 ****        2 TEMP              0 ****  ****    0 ROOT 
@<TRIPOS>NORMAL
@<TRIPOS>FF_PBC
FORCE_FIELD_SETUP_FEATURE Force Field Setup information
v1.0  0 0.000000 0.000000 0.000000 0.000000 0.000000 0.000000 NONE 0 0 0 0 1 0 0 0 0 0 0 0 0
