#	Name:			PISM01188
#	Creating user name:	baoopengkun
#	Creation time:		Tue Dec 18 22:02:49 2018

#	Modifying user name:	baoopengkun
#	Modification time:	Tue Dec 18 22:03:46 2018

@<TRIPOS>MOLECULE
PISM01188
   19    20     1     1     0
SMALL
GAST_HUCK


@<TRIPOS>ATOM
      1 O1         18.1647   23.2047  -37.4929 O.2       1 <1>        -0.3698 
      2 C2         17.9223   24.0872  -36.6863 C.2       1 <1>         0.1896 
      3 S3         18.1205   23.7558  -34.9439 S.3       1 <1>        -0.0550 
      4 C4         19.4512   24.9664  -34.6616 C.3       1 <1>         0.0009 
      5 C5         17.4794   25.4367  -37.2144 C.ar      1 <1>         0.0662 
      6 C6         17.8633   25.8176  -38.5083 C.ar      1 <1>        -0.0423 
      7 C7         17.5314   27.0745  -39.0312 C.ar      1 <1>        -0.0550 
      8 C8         16.7921   27.9858  -38.2707 C.ar      1 <1>        -0.0311 
      9 C9         16.3812   27.5919  -36.9979 C.ar      1 <1>         0.1058 
     10 C10        16.6998   26.3416  -36.4840 C.ar      1 <1>         0.0960 
     11 N11        15.6520   28.3530  -36.1640 N.2       1 <1>        -0.1614 
     12 N12        15.3812   27.7000  -35.0140 N.2       1 <1>        -0.1187 
     13 S13        16.0361   26.0138  -34.8849 S.3       1 <1>         0.0662 
     14 H1         19.1000   25.9875  -34.8703 H         1 <1>         0.0367 
     15 H2         20.3070   24.7340  -35.3131 H         1 <1>         0.0367 
     16 H3         19.7705   24.9044  -33.6110 H         1 <1>         0.0367 
     17 H4         18.4353   25.1289  -39.1230 H         1 <1>         0.0694 
     18 H5         17.8505   27.3447  -40.0336 H         1 <1>         0.0592 
     19 H6         16.5400   28.9693  -38.6532 H         1 <1>         0.0699 
@<TRIPOS>BOND
     1    2    1 2    
     2    2    3 1    
     3    3    4 1    
     4    2    5 1    
     5    5    6 ar   
     6    6    7 ar   
     7    7    8 ar   
     8    8    9 ar   
     9    9   10 ar   
    10    5   10 ar   
    11    9   11 1    
    12   11   12 2    
    13   12   13 1    
    14   10   13 1    
    15    4   14 1    
    16    4   15 1    
    17    4   16 1    
    18    6   17 1    
    19    7   18 1    
    20    8   19 1    
@<TRIPOS>SUBSTRUCTURE
     1 ****        2 TEMP              0 ****  ****    0 ROOT 
@<TRIPOS>NORMAL
@<TRIPOS>FF_PBC
FORCE_FIELD_SETUP_FEATURE Force Field Setup information
v1.0  0 0.000000 0.000000 0.000000 0.000000 0.000000 0.000000 NONE 0 0 0 0 1 0 0 0 0 0 0 0 0
