#	Name:			PISM00065
#	Creating user name:	baoopengkun
#	Creation time:		Thu Dec 27 11:25:25 2018

#	Modifying user name:	baoopengkun
#	Modification time:	Thu Dec 27 11:27:44 2018

@<TRIPOS>MOLECULE
PISM00065
   57    61     1     1     0
SMALL
GAST_HUCK


@<TRIPOS>ATOM
      1 C1        -14.2161   22.5082   -7.7293 C.3       1 <1>        -0.0400 
      2 C2        -13.5888   23.7735   -7.0958 C.3       1 <1>        -0.0507 
      3 C3        -13.8866   23.7785   -5.5771 C.3       1 <1>        -0.0400 
      4 C4        -13.3407   22.4836   -4.9261 C.3       1 <1>         0.0012 
      5 N5        -13.9270   21.2844   -5.5756 N.3       1 <1>        -0.2856 
      6 C6        -13.6722   21.2335   -7.0365 C.3       1 <1>         0.0012 
      7 C7        -13.6174   20.0232   -4.8525 C.3       1 <1>         0.0757 
      8 C8        -14.3524   18.8248   -5.4051 C.2       1 <1>         0.1376 
      9 O9        -15.5584   18.7010   -5.2669 O.2       1 <1>        -0.3859 
     10 C10       -13.5580   17.7657   -6.1196 C.3       1 <1>         0.0919 
     11 C11       -12.7575   17.0279   -5.0870 C.2       1 <1>         0.1234 
     12 N12       -11.4889   17.0600   -5.1410 N.2       1 <1>        -0.2675 
     13 N13       -10.9365   16.3077   -4.0692 N.2       1 <1>        -0.2605 
     14 C14       -11.8562   15.8073   -3.3476 C.2       1 <1>         0.1693 
     15 S15       -13.5441   16.1235   -3.7871 S.3       1 <1>         0.0560 
     16 S16       -11.5480   14.7950   -1.9188 S.3       1 <1>        -0.0282 
     17 C17       -11.7112   13.2169   -2.8123 C.3       1 <1>         0.1130 
     18 C18       -11.7541   12.0932   -1.8024 C.2       1 <1>         0.2328 
     19 O19       -10.6681   11.7367   -1.3745 O.2       1 <1>        -0.3723 
     20 N20       -12.8662   11.5114   -1.4179 N.pl3     1 <1>        -0.1799 
     21 C21       -14.0844   11.8727   -1.8917 C.ar      1 <1>         0.0980 
     22 C22       -14.8869   10.9069   -2.5062 C.ar      1 <1>         0.0551 
     23 S23       -14.3741    9.2111   -2.4889 S.3       1 <1>        -0.0536 
     24 C24       -13.4890    9.2694   -0.9510 C.ar      1 <1>         0.0551 
     25 C25       -12.8209   10.4428   -0.5841 C.ar      1 <1>         0.0980 
     26 C26       -12.1299   10.4930    0.6318 C.ar      1 <1>        -0.0408 
     27 C27       -12.0802    9.3657    1.4573 C.ar      1 <1>        -0.0780 
     28 C28       -12.7388    8.1915    1.0809 C.ar      1 <1>        -0.0791 
     29 C29       -13.4488    8.1449   -0.1222 C.ar      1 <1>        -0.0565 
     30 C30       -14.5655   13.1798   -1.7605 C.ar      1 <1>        -0.0408 
     31 C31       -15.7522   13.5573   -2.3955 C.ar      1 <1>        -0.0780 
     32 C32       -16.5008   12.6083   -3.0977 C.ar      1 <1>        -0.0791 
     33 C33       -16.0794   11.2759   -3.1344 C.ar      1 <1>        -0.0565 
     34 H1        -13.9899   22.4787   -8.8086 H         1 <1>         0.0278 
     35 H2        -15.3115   22.5428   -7.6069 H         1 <1>         0.0278 
     36 H3        -14.0103   24.6785   -7.5650 H         1 <1>         0.0266 
     37 H4        -12.4989   23.7739   -7.2634 H         1 <1>         0.0266 
     38 H5        -14.9761   23.8307   -5.4149 H         1 <1>         0.0278 
     39 H6        -13.4241   24.6630   -5.1073 H         1 <1>         0.0278 
     40 H7        -13.6030   22.5077   -3.8553 H         1 <1>         0.0428 
     41 H8        -12.2414   22.4598   -5.0091 H         1 <1>         0.0428 
     42 H9        -14.1881   20.3726   -7.4907 H         1 <1>         0.0428 
     43 H10       -12.5913   21.1312   -7.2286 H         1 <1>         0.0428 
     44 H11       -13.9419   20.1100   -3.8041 H         1 <1>         0.0662 
     45 H12       -12.5294   19.8491   -4.8554 H         1 <1>         0.0662 
     46 H13       -12.8966   18.2180   -6.8735 H         1 <1>         0.0738 
     47 H14       -14.2340   17.0602   -6.6248 H         1 <1>         0.0738 
     48 H15       -10.8129   13.0996   -3.4376 H         1 <1>         0.0662 
     49 H16       -12.5806   13.2143   -3.4845 H         1 <1>         0.0662 
     50 H17       -11.6351   11.4077    0.9417 H         1 <1>         0.0515 
     51 H18       -11.5301    9.4027    2.3928 H         1 <1>         0.0532 
     52 H19       -12.6993    7.3166    1.7227 H         1 <1>         0.0503 
     53 H20       -13.9675    7.2372   -0.4133 H         1 <1>         0.0532 
     54 H21       -14.0274   13.9014   -1.1583 H         1 <1>         0.0515 
     55 H22       -16.0946   14.5864   -2.3406 H         1 <1>         0.0532 
     56 H23       -17.4113   12.9048   -3.6098 H         1 <1>         0.0503 
     57 H24       -16.6767   10.5294   -3.6480 H         1 <1>         0.0532 
@<TRIPOS>BOND
     1    2    1 1    
     2    2    3 1    
     3    3    4 1    
     4    4    5 1    
     5    5    6 1    
     6    1    6 1    
     7    5    7 1    
     8    7    8 1    
     9    8    9 2    
    10    8   10 1    
    11   10   11 1    
    12   11   12 2    
    13   12   13 1    
    14   13   14 2    
    15   14   15 1    
    16   11   15 1    
    17   14   16 1    
    18   16   17 1    
    19   17   18 1    
    20   18   19 2    
    21   18   20 1    
    22   20   21 1    
    23   21   22 ar   
    24   22   23 1    
    25   23   24 1    
    26   24   25 ar   
    27   20   25 1    
    28   25   26 ar   
    29   26   27 ar   
    30   27   28 ar   
    31   28   29 ar   
    32   24   29 ar   
    33   21   30 ar   
    34   30   31 ar   
    35   31   32 ar   
    36   32   33 ar   
    37   22   33 ar   
    38    1   34 1    
    39    1   35 1    
    40    2   36 1    
    41    2   37 1    
    42    3   38 1    
    43    3   39 1    
    44    4   40 1    
    45    4   41 1    
    46    6   42 1    
    47    6   43 1    
    48    7   44 1    
    49    7   45 1    
    50   10   46 1    
    51   10   47 1    
    52   17   48 1    
    53   17   49 1    
    54   26   50 1    
    55   27   51 1    
    56   28   52 1    
    57   29   53 1    
    58   30   54 1    
    59   31   55 1    
    60   32   56 1    
    61   33   57 1    
@<TRIPOS>SUBSTRUCTURE
     1 ****        2 TEMP              0 ****  ****    0 ROOT 
@<TRIPOS>NORMAL
@<TRIPOS>FF_PBC
FORCE_FIELD_SETUP_FEATURE Force Field Setup information
v1.0  0 0.000000 0.000000 0.000000 0.000000 0.000000 0.000000 NONE 0 0 0 0 1 0 0 0 0 0 0 0 0
