#	Name:			PISM00525
#	Creating user name:	baoopengkun
#	Creation time:		Sun Dec 16 00:47:12 2018

#	Modifying user name:	baoopengkun
#	Modification time:	Sun Dec 16 00:51:49 2018

@<TRIPOS>MOLECULE
PISM00525
   57    61     1     1     0
SMALL
GAST_HUCK


@<TRIPOS>ATOM
      1 H1          8.0644   12.2047   22.3184 H         1 <1>         0.0467 
      2 H2          9.6706   12.4600   23.0364 H         1 <1>         0.0467 
      3 H3          8.7500   10.9431   23.3648 H         1 <1>         0.0467 
      4 C4          8.9994   11.7013   22.6089 C.3       1 <1>         0.0258 
      5 C5          9.6393   11.0505   21.4077 C.2       1 <1>         0.1755 
      6 O6          9.0331   11.1762   20.3563 O.2       1 <1>        -0.3972 
      7 N7         10.8135   10.3600   21.4686 N.am      1 <1>        -0.2702 
      8 C8         11.5495   10.1722   22.7193 C.3       1 <1>         0.0394 
      9 C9         11.6565    8.6448   22.9895 C.3       1 <1>         0.0076 
     10 C10        10.2683    8.0133   23.2648 C.3       1 <1>         0.0612 
     11 N11         9.4140    7.7700   22.0921 N.pl3     1 <1>        -0.2171 
     12 C12         8.1559    7.4731   22.3192 C.2       1 <1>         0.2270 
     13 O13         7.7120    7.4077   23.4564 O.2       1 <1>        -0.4054 
     14 C14         7.1737    7.1873   21.2453 C.2       1 <1>         0.1124 
     15 C15         7.6556    7.2452   19.9973 C.2       1 <1>        -0.0648 
     16 N16         5.9508    6.9128   21.6444 N.pl3     1 <1>        -0.2466 
     17 C17        11.3260    9.7180   20.2585 C.3       1 <1>         0.0516 
     18 C18        11.3207    8.2004   20.5707 C.3       1 <1>         0.0439 
     19 C19        12.2509    7.9084   21.7702 C.3       1 <1>        -0.0261 
     20 C20         9.8770    7.8322   20.8615 C.2       1 <1>         0.0632 
     21 C21         9.0737    7.5850   19.8167 C.2       1 <1>        -0.0619 
     22 C22         4.9314    6.6156   20.8766 C.2       1 <1>         0.2248 
     23 O23         4.9863    6.5180   19.6634 O.2       1 <1>        -0.3693 
     24 C24         3.5621    6.3521   21.4744 C.ar      1 <1>         0.0542 
     25 C25         3.0945    7.0563   22.5912 C.ar      1 <1>        -0.0413 
     26 C26         1.8499    6.7524   23.1506 C.ar      1 <1>        -0.0488 
     27 C27         1.0404    5.7694   22.5745 C.ar      1 <1>        -0.0140 
     28 C28         1.4841    5.0912   21.4358 C.ar      1 <1>        -0.0488 
     29 C29         2.7367    5.3848   20.8890 C.ar      1 <1>        -0.0413 
     30 C30        -0.2819    5.4513   23.1678 C.ar      1 <1>        -0.0153 
     31 C31        -0.3723    5.0489   24.5041 C.ar      1 <1>        -0.0530 
     32 C32        -1.6186    4.7567   25.0660 C.ar      1 <1>        -0.0605 
     33 C33        -2.7768    4.8602   24.2901 C.ar      1 <1>        -0.0611 
     34 C34        -2.6878    5.2572   22.9526 C.ar      1 <1>        -0.0605 
     35 C35        -1.4416    5.5541   22.3930 C.ar      1 <1>        -0.0530 
     36 H4         11.1249   10.6667   23.6036 H         1 <1>         0.0526 
     37 H5         12.5627   10.5842   22.5844 H         1 <1>         0.0526 
     38 H6         12.3072    8.4931   23.8700 H         1 <1>         0.0347 
     39 H7          9.7529    8.6399   24.0112 H         1 <1>         0.0590 
     40 H8         10.4265    7.0229   23.7244 H         1 <1>         0.0590 
     41 H9          7.1036    7.0696   19.0783 H         1 <1>         0.0432 
     42 H10         5.7960    6.9229   22.6649 H         1 <1>         0.2053 
     43 H11        12.3508   10.0689   20.0581 H         1 <1>         0.0555 
     44 H12        10.7340    9.9142   19.3497 H         1 <1>         0.0555 
     45 H13        11.7041    7.6485   19.6948 H         1 <1>         0.0556 
     46 H14        13.2754    8.2605   21.5657 H         1 <1>         0.0302 
     47 H15        12.2929    6.8226   21.9587 H         1 <1>         0.0302 
     48 H16         9.4496    7.6362   18.7938 H         1 <1>         0.0242 
     49 H17         3.6839    7.8545   23.0298 H         1 <1>         0.0668 
     50 H18         1.5086    7.2860   24.0324 H         1 <1>         0.0633 
     51 H19         0.8575    4.3328   20.9766 H         1 <1>         0.0633 
     52 H20         3.0699    4.8516   20.0038 H         1 <1>         0.0668 
     53 H21         0.5261    4.9610   25.1070 H         1 <1>         0.0629 
     54 H22        -1.6870    4.4489   26.1050 H         1 <1>         0.0619 
     55 H23        -3.7448    4.6323   24.7259 H         1 <1>         0.0622 
     56 H24        -3.5868    5.3357   22.3488 H         1 <1>         0.0619 
     57 H25        -1.3761    5.8673   21.3557 H         1 <1>         0.0629 
@<TRIPOS>BOND
     1    4    1 1    
     2    4    2 1    
     3    4    3 1    
     4    4    5 1    
     5    5    6 2    
     6    5    7 am   
     7    7    8 1    
     8    8    9 1    
     9    9   10 1    
    10   10   11 1    
    11   11   12 1    
    12   12   13 2    
    13   12   14 1    
    14   14   15 2    
    15   14   16 1    
    16    7   17 1    
    17   17   18 1    
    18   18   19 1    
    19    9   19 1    
    20   18   20 1    
    21   11   20 1    
    22   20   21 2    
    23   15   21 1    
    24   16   22 1    
    25   22   23 2    
    26   22   24 1    
    27   24   25 ar   
    28   25   26 ar   
    29   26   27 ar   
    30   27   28 ar   
    31   28   29 ar   
    32   24   29 ar   
    33   27   30 1    
    34   30   31 ar   
    35   31   32 ar   
    36   32   33 ar   
    37   33   34 ar   
    38   34   35 ar   
    39   30   35 ar   
    40    8   36 1    
    41    8   37 1    
    42    9   38 1    
    43   10   39 1    
    44   10   40 1    
    45   15   41 1    
    46   16   42 1    
    47   17   43 1    
    48   17   44 1    
    49   18   45 1    
    50   19   46 1    
    51   19   47 1    
    52   21   48 1    
    53   25   49 1    
    54   26   50 1    
    55   28   51 1    
    56   29   52 1    
    57   31   53 1    
    58   32   54 1    
    59   33   55 1    
    60   34   56 1    
    61   35   57 1    
@<TRIPOS>SUBSTRUCTURE
     1 ****        4 TEMP              0 ****  ****    0 ROOT 
@<TRIPOS>NORMAL
@<TRIPOS>FF_PBC
FORCE_FIELD_SETUP_FEATURE Force Field Setup information
v1.0  0 0.000000 0.000000 0.000000 0.000000 0.000000 0.000000 NONE 0 0 0 0 1 0 0 0 0 0 0 0 0
