#	Name:			PISM00845.1
#	Creating user name:	baoopengkun
#	Creation time:		Thu Dec 13 14:40:19 2018

#	Modifying user name:	baoopengkun
#	Modification time:	Thu Dec 13 15:01:55 2018

@<TRIPOS>MOLECULE
PISM00845.1
   28    29     1     1     0
SMALL
GAST_HUCK


@<TRIPOS>ATOM
      1 C1         -8.5156   17.8997    9.1805 C.ar      1 <1>        -0.0411 
      2 C2         -7.7259   16.8911    9.7402 C.ar      1 <1>        -0.0415 
      3 C3         -6.4301   16.6748    9.2644 C.ar      1 <1>         0.0794 
      4 C4         -5.9235   17.4657    8.2297 C.ar      1 <1>        -0.0415 
      5 C5         -6.7159   18.4695    7.6648 C.ar      1 <1>        -0.0411 
      6 C6         -8.0074   18.6950    8.1499 C.ar      1 <1>         0.0865 
      7 O7         -5.6432   15.6691    9.8233 O.3       1 <1>        -0.3284 
      8 O8         -8.7936   19.7109    7.6095 O.3       1 <1>        -0.2784 
      9 C9         -8.4157   21.0323    8.0216 C.3       1 <1>         0.2335 
     10 C10        -8.5835   21.1879    9.5152 C.2       1 <1>        -0.0023 
     11 C11        -9.5329   22.0807    9.7878 C.2       1 <1>         0.0291 
     12 C12        -9.9726   22.5243    8.4701 C.2       1 <1>         0.2494 
     13 O13        -9.3487   21.9650    7.4409 O.3       1 <1>        -0.2317 
     14 C14       -10.0263   22.5421   11.1318 C.3       1 <1>        -0.0323 
     15 O15       -10.8491   23.3579    8.3190 O.2       1 <1>        -0.3691 
     16 C16        -5.7050   14.4248    9.1080 C.3       1 <1>         0.0569 
     17 H1         -9.5238   18.0703    9.5434 H         1 <1>         0.0516 
     18 H2         -8.1134   16.2734   10.5435 H         1 <1>         0.0516 
     19 H3         -4.9146   17.2964    7.8682 H         1 <1>         0.0516 
     20 H4         -6.3303   19.0721    6.8493 H         1 <1>         0.0516 
     21 H5         -7.3936   21.2922    7.7011 H         1 <1>         0.1194 
     22 H6         -8.0100   20.6419   10.2633 H         1 <1>         0.0705 
     23 H7        -10.3994   23.5748   11.0599 H         1 <1>         0.0347 
     24 H8         -9.2140   22.5081   11.8733 H         1 <1>         0.0347 
     25 H9        -10.8456   21.8875   11.4636 H         1 <1>         0.0347 
     26 H10        -5.0602   13.6976    9.6233 H         1 <1>         0.0573 
     27 H11        -5.3446   14.5461    8.0745 H         1 <1>         0.0573 
     28 H12        -6.7350   14.0353    9.0921 H         1 <1>         0.0573 
@<TRIPOS>BOND
     1    2    1 ar   
     2    2    3 ar   
     3    3    4 ar   
     4    4    5 ar   
     5    5    6 ar   
     6    1    6 ar   
     7    3    7 1    
     8    6    8 1    
     9    8    9 1    
    10    9   10 1    
    11   10   11 2    
    12   11   12 1    
    13   12   13 1    
    14    9   13 1    
    15   11   14 1    
    16   12   15 2    
    17    7   16 1    
    18    1   17 1    
    19    2   18 1    
    20    4   19 1    
    21    5   20 1    
    22    9   21 1    
    23   10   22 1    
    24   14   23 1    
    25   14   24 1    
    26   14   25 1    
    27   16   26 1    
    28   16   27 1    
    29   16   28 1    
@<TRIPOS>SUBSTRUCTURE
     1 ****        2 TEMP              0 ****  ****    0 ROOT 
@<TRIPOS>NORMAL
@<TRIPOS>FF_PBC
FORCE_FIELD_SETUP_FEATURE Force Field Setup information
v1.0  0 0.000000 0.000000 0.000000 0.000000 0.000000 0.000000 NONE 0 0 0 0 1 0 0 0 0 0 0 0 0
