#	Name:			PISM01101
#	Creating user name:	14062
#	Creation time:		Sat Apr 06 21:18:25 2019

#	Modifying user name:	14062
#	Modification time:	Sat Apr 06 21:20:52 2019

@<TRIPOS>MOLECULE
PISM01101
   60    64     1     1     0
SMALL
GAST_HUCK


@<TRIPOS>ATOM
      1 C1         -2.0945   -0.2091   10.8628 C.3       1 BENZYL      0.0438 
      2 N2         -0.8640   -0.8413   10.3896 N.pl3     1 BENZYL     -0.3058 
      3 C2         -0.4992   -2.0621   10.8527 C.ar      1 BENZYL      0.0403 
      4 C3         -0.3803   -2.2836   12.2289 C.ar      1 BENZYL     -0.0443 
      5 C4         -0.0376   -3.5498   12.7122 C.ar      1 BENZYL     -0.0737 
      6 C5          0.2142   -4.5946   11.8184 C.ar      1 BENZYL     -0.0751 
      7 C6          0.1215   -4.3708   10.4418 C.ar      1 BENZYL     -0.0737 
      8 C7         -0.2453   -3.1102    9.9615 C.ar      1 BENZYL     -0.0443 
      9 C9         -0.0648   -0.1516    9.3772 C.3       1 BENZYL      0.0438 
     10 C10        -0.9555    0.1806    8.1570 C.3       1 BENZYL      0.0493 
     11 N11        -2.1780    0.8059    8.6503 N.am      1 BENZYL     -0.2303 
     12 C12        -2.9870    0.1018    9.6377 C.3       1 BENZYL      0.0493 
     13 S13        -2.6984    2.2741    8.0807 S.o2      1 BENZYL      0.0717 
     14 O14        -1.7262    2.8189    7.1537 O.2       1 BENZYL     -0.1500 
     15 O15        -4.0770    2.1306    7.6561 O.2       1 BENZYL     -0.1500 
     16 C16        -2.6473    3.2448    9.5686 C.ar      1 BENZYL      0.1140 
     17 C17        -1.4254    3.7431   10.0297 C.ar      1 BENZYL     -0.0146 
     18 C18        -1.3674    4.4905   11.2112 C.ar      1 BENZYL      0.0573 
     19 C19        -2.5388    4.7268   11.9375 C.ar      1 BENZYL     -0.0412 
     20 C20        -3.7613    4.2229   11.4846 C.ar      1 BENZYL     -0.0542 
     21 C21        -3.8155    3.4894   10.2964 C.ar      1 BENZYL     -0.0307 
     22 C22        -0.0607    5.0745   11.7054 C.2       1 BENZYL      0.2306 
     23 O23        -0.1087    6.2813   11.8804 O.2       1 BENZYL     -0.3671 
     24 N24         1.0219    4.3673   11.9424 N.pl3     1 BENZYL     -0.2281 
     25 C25         1.0017    2.9018   11.9129 C.3       1 BENZYL      0.0486 
     26 C26         1.3842    2.4251   13.3332 C.3       1 BENZYL     -0.0218 
     27 C27         2.8184    2.8961   13.6640 C.3       1 BENZYL     -0.0198 
     28 C28         3.0412    4.3494   13.2318 C.ar      1 BENZYL     -0.0199 
     29 C29         2.1848    4.9720   12.3118 C.ar      1 BENZYL      0.0662 
     30 C30         2.5715    6.2095   11.7776 C.ar      1 BENZYL     -0.0461 
     31 C31         3.6610    6.9090   12.3045 C.ar      1 BENZYL     -0.0791 
     32 C32         4.4314    6.3358   13.3181 C.ar      1 BENZYL     -0.0807 
     33 C33         4.1328    5.0460   13.7622 C.ar      1 BENZYL     -0.0702 
     34 H1         -1.8372    0.7294   11.3772 H         1 BENZYL      0.0529 
     35 H2         -2.6568   -0.8466   11.5656 H         1 BENZYL      0.0529 
     36 H3         -0.5502   -1.4691   12.9256 H         1 BENZYL      0.0515 
     37 H4          0.0341   -3.7222   13.7821 H         1 BENZYL      0.0583 
     38 H5          0.4813   -5.5783   12.1922 H         1 BENZYL      0.0505 
     39 H6          0.3318   -5.1772    9.7460 H         1 BENZYL      0.0583 
     40 H7         -0.3397   -2.9512    8.8928 H         1 BENZYL      0.0515 
     41 H8          0.8212   -0.7276    9.0633 H         1 BENZYL      0.0529 
     42 H9          0.2929    0.7914    9.8151 H         1 BENZYL      0.0529 
     43 H10        -1.2236   -0.7524    7.6374 H         1 BENZYL      0.0497 
     44 H11        -0.4000    0.8168    7.4515 H         1 BENZYL      0.0497 
     45 H12        -3.3393   -0.8429    9.1935 H         1 BENZYL      0.0497 
     46 H13        -3.8704    0.6810    9.9482 H         1 BENZYL      0.0497 
     47 H14        -0.5215    3.5545    9.4604 H         1 BENZYL      0.0690 
     48 H15        -2.4986    5.3054   12.8554 H         1 BENZYL      0.0671 
     49 H16        -4.6678    4.4033   12.0546 H         1 BENZYL      0.0630 
     50 H17        -4.7677    3.1124    9.9388 H         1 BENZYL      0.0673 
     51 H18         1.7253    2.5341   11.1674 H         1 BENZYL      0.0557 
     52 H19         0.0236    2.4502   11.6987 H         1 BENZYL      0.0557 
     53 H20         1.3215    1.3266   13.4170 H         1 BENZYL      0.0306 
     54 H21         0.6767    2.8711   14.0523 H         1 BENZYL      0.0306 
     55 H22         3.5463    2.2864   13.1051 H         1 BENZYL      0.0403 
     56 H23         3.0133    2.7729   14.7419 H         1 BENZYL      0.0403 
     57 H24         2.0383    6.6416   10.9376 H         1 BENZYL      0.0508 
     58 H25         3.9094    7.8956   11.9258 H         1 BENZYL      0.0528 
     59 H26         5.2598    6.8871   13.7530 H         1 BENZYL      0.0497 
     60 H27         4.7580    4.5856   14.5206 H         1 BENZYL      0.0523 
@<TRIPOS>BOND
     1    2    3 1    
     2    3    4 ar   
     3    3    8 ar   
     4    8    7 ar   
     5    7    6 ar   
     6    6    5 ar   
     7    5    4 ar   
     8    2    1 1    
     9    2    9 1    
    10    9   10 1    
    11   10   11 1    
    12   11   12 1    
    13    1   12 1    
    14   11   13 1    
    15   13   14 2    
    16   13   15 2    
    17   13   16 1    
    18   16   17 ar   
    19   17   18 ar   
    20   18   19 ar   
    21   19   20 ar   
    22   20   21 ar   
    23   16   21 ar   
    24   18   22 1    
    25   22   23 2    
    26   22   24 1    
    27   24   25 1    
    28   25   26 1    
    29   26   27 1    
    30   27   28 1    
    31   28   29 ar   
    32   24   29 1    
    33   29   30 ar   
    34   30   31 ar   
    35   31   32 ar   
    36   32   33 ar   
    37   28   33 ar   
    38    1   34 1    
    39    1   35 1    
    40    4   36 1    
    41    5   37 1    
    42    6   38 1    
    43    7   39 1    
    44    8   40 1    
    45    9   41 1    
    46    9   42 1    
    47   10   43 1    
    48   10   44 1    
    49   12   45 1    
    50   12   46 1    
    51   17   47 1    
    52   19   48 1    
    53   20   49 1    
    54   21   50 1    
    55   25   51 1    
    56   25   52 1    
    57   26   53 1    
    58   26   54 1    
    59   27   55 1    
    60   27   56 1    
    61   30   57 1    
    62   31   58 1    
    63   32   59 1    
    64   33   60 1    
@<TRIPOS>SUBSTRUCTURE
     1 BENZYL      2 PERM              0 ****  ****    0 ROOT 
@<TRIPOS>NORMAL
@<TRIPOS>FF_PBC
FORCE_FIELD_SETUP_FEATURE Force Field Setup information
v1.0  0 0.000000 0.000000 0.000000 0.000000 0.000000 0.000000 NONE 0 0 0 0 1 0 0 0 0 0 0 0 0
