#	Name:			PISM00808
#	Creating user name:	baoopengkun
#	Creation time:		Sat Dec 15 02:25:18 2018

#	Modifying user name:	baoopengkun
#	Modification time:	Sat Dec 15 02:30:43 2018

@<TRIPOS>MOLECULE
PISM00808
   26    26     1     1     0
SMALL
GAST_HUCK


@<TRIPOS>ATOM
      1 H1          8.7264   21.5218  -51.8734 H         1 <1>         0.1246 
      2 H2          8.7223   17.9427  -49.6110 H         1 <1>         0.0317 
      3 H3          9.4612   17.8734  -51.2321 H         1 <1>         0.0317 
      4 H4          7.7349   17.4785  -51.0302 H         1 <1>         0.0317 
      5 O5          9.9738   20.0534  -52.2890 O.2       1 <1>        -0.3854 
      6 C6          8.9767   20.4716  -51.7245 C.2       1 <1>         0.0981 
      7 C7          8.1511   19.5811  -50.8775 C.2       1 <1>         0.0128 
      8 C8          8.5462   18.1348  -50.6804 C.3       1 <1>        -0.0394 
      9 C9          7.0447   20.0410  -50.2763 C.2       1 <1>         0.0768 
     10 O10         6.3176   19.2122  -49.5116 O.3       1 <1>        -0.2693 
     11 C11         5.0917   19.7693  -48.9990 C.3       1 <1>         0.2465 
     12 C12         3.9867   19.7763  -50.0365 C.2       1 <1>         0.0159 
     13 C13         3.0008   18.9405  -49.7140 C.2       1 <1>         0.0196 
     14 C14         3.4546   18.3860  -48.4441 C.2       1 <1>         0.2325 
     15 O15         4.6211   18.8408  -48.0013 O.3       1 <1>        -0.2328 
     16 C16         1.7316   18.6333  -50.4618 C.3       1 <1>        -0.0421 
     17 C17         4.0775   20.6568  -51.2577 C.3       1 <1>        -0.0223 
     18 O18         2.8077   17.5634  -47.8192 O.2       1 <1>        -0.3822 
     19 H5          6.7728   21.0876  -50.4265 H         1 <1>         0.1081 
     20 H6          5.2217   20.7473  -48.5057 H         1 <1>         0.1237 
     21 H7          1.9693   18.3049  -51.4846 H         1 <1>         0.0303 
     22 H8          1.0981   19.5316  -50.5057 H         1 <1>         0.0303 
     23 H9          1.1757   17.8314  -49.9533 H         1 <1>         0.0303 
     24 H10         4.8601   20.2827  -51.9339 H         1 <1>         0.0429 
     25 H11         4.3116   21.6902  -50.9620 H         1 <1>         0.0429 
     26 H12         3.1258   20.6658  -51.8091 H         1 <1>         0.0429 
@<TRIPOS>BOND
     1    6    1 1    
     2    8    2 1    
     3    8    3 1    
     4    8    4 1    
     5    5    6 2    
     6    6    7 1    
     7    7    8 1    
     8    7    9 2    
     9    9   10 1    
    10   10   11 1    
    11   11   12 1    
    12   12   13 2    
    13   14   13 1    
    14   15   14 1    
    15   11   15 1    
    16   13   16 1    
    17   12   17 1    
    18   14   18 2    
    19    9   19 1    
    20   11   20 1    
    21   16   21 1    
    22   16   22 1    
    23   16   23 1    
    24   17   24 1    
    25   17   25 1    
    26   17   26 1    
@<TRIPOS>SUBSTRUCTURE
     1 ****        5 TEMP              0 ****  ****    0 ROOT 
@<TRIPOS>NORMAL
@<TRIPOS>FF_PBC
FORCE_FIELD_SETUP_FEATURE Force Field Setup information
v1.0  0 0.000000 0.000000 0.000000 0.000000 0.000000 0.000000 NONE 0 0 0 0 1 0 0 0 0 0 0 0 0
