#	Name:			PISM01012.1
#	Creating user name:	malab
#	Creation time:		Mon Jul 01 22:35:09 2019

#	Modifying user name:	malab
#	Modification time:	Mon Jul 01 22:35:26 2019

@<TRIPOS>MOLECULE
PISM01012.1
   25    26     1     1     0
SMALL
GAST_HUCK


@<TRIPOS>ATOM
      1 C1         18.8796   12.7267   32.2169 C.ar      1 <1>        -0.0520 
      2 C2         19.3157   14.0478   32.3547 C.ar      1 <1>        -0.0585 
      3 C3         18.6194   15.0827   31.7233 C.ar      1 <1>        -0.0322 
      4 C4         17.4878   14.7941   30.9547 C.ar      1 <1>         0.1273 
      5 C5         17.0481   13.4740   30.8200 C.ar      1 <1>         0.1460 
      6 C6         17.7462   12.4397   31.4505 C.ar      1 <1>         0.0532 
      7 Br7        17.1685   10.6885   31.2692 Br        1 <1>        -0.0553 
      8 O8         15.9143   13.1828   30.0613 O.3       1 <1>        -0.2580 
      9 C9         16.1699   13.1310   28.6518 C.3       1 <1>         0.2394 
     10 O10        17.2250   12.1836   28.3904 O.3       1 <1>        -0.2307 
     11 C11        16.6458   11.1929   27.7248 C.2       1 <1>         0.2495 
     12 O12        17.2640   10.2022   27.3757 O.2       1 <1>        -0.3691 
     13 C13        15.2289   11.3764   27.4329 C.2       1 <1>         0.0292 
     14 C14        14.3164   10.4407   26.6884 C.3       1 <1>        -0.0323 
     15 C15        14.9455   12.5541   27.9864 C.2       1 <1>        -0.0012 
     16 C16        16.7688   15.8528   30.2941 C.1       1 <1>         0.0922 
     17 N17        16.1902   16.6971   29.7538 N.1       1 <1>        -0.3387 
     18 H1         19.4211   11.9225   32.7054 H         1 <1>         0.0688 
     19 H2         20.1953   14.2699   32.9519 H         1 <1>         0.0558 
     20 H3         18.9573   16.1092   31.8294 H         1 <1>         0.0712 
     21 H4         16.4229   14.1171   28.2281 H         1 <1>         0.1207 
     22 H5         14.5286   10.5060   25.6110 H         1 <1>         0.0347 
     23 H6         13.2609   10.6978   26.8642 H         1 <1>         0.0347 
     24 H7         14.4931    9.4086   27.0264 H         1 <1>         0.0347 
     25 H8         13.9691   13.0368   27.9746 H         1 <1>         0.0706 
@<TRIPOS>BOND
     1    2    1 ar   
     2    2    3 ar   
     3    3    4 ar   
     4    4    5 ar   
     5    5    6 ar   
     6    1    6 ar   
     7    6    7 1    
     8    5    8 1    
     9    8    9 1    
    10    9   10 1    
    11   10   11 1    
    12   11   12 2    
    13   11   13 1    
    14   13   14 1    
    15   13   15 2    
    16    9   15 1    
    17    4   16 1    
    18   16   17 3    
    19    1   18 1    
    20    2   19 1    
    21    3   20 1    
    22    9   21 1    
    23   14   22 1    
    24   14   23 1    
    25   14   24 1    
    26   15   25 1    
@<TRIPOS>SUBSTRUCTURE
     1 ****        2 TEMP              0 ****  ****    0 ROOT 
@<TRIPOS>NORMAL
@<TRIPOS>FF_PBC
FORCE_FIELD_SETUP_FEATURE Force Field Setup information
v1.0  0 0.000000 0.000000 0.000000 0.000000 0.000000 0.000000 NONE 0 0 0 0 1 0 0 0 0 0 0 0 0
