#	Name:			PISM00677.1
#	Creating user name:	baoopengkun
#	Creation time:		Sat Jan 12 23:33:32 2019

#	Modifying user name:	baoopengkun
#	Modification time:	Sat Jan 12 23:35:35 2019

@<TRIPOS>MOLECULE
PISM00677.1
   34    36     1     1     0
SMALL
GAST_HUCK


@<TRIPOS>ATOM
      1 Cl1        -0.7577  -10.1317    1.9309 Cl        1 <1>        -0.0527 
      2 C2         -0.9837  -11.8703    1.9861 C.ar      1 <1>         0.0506 
      3 C3         -1.2923  -12.4192    3.2352 C.ar      1 <1>        -0.0291 
      4 C4         -1.5661  -13.7813    3.3731 C.ar      1 <1>        -0.0431 
      5 C5         -1.5512  -14.5970    2.2414 C.ar      1 <1>        -0.0433 
      6 C6         -1.2256  -14.0506    0.9976 C.ar      1 <1>        -0.0536 
      7 C7         -0.8784  -12.6989    0.8549 C.ar      1 <1>        -0.0423 
      8 C8         -0.4126  -12.2431   -0.5510 C.3       1 <1>         0.0746 
      9 O9          0.8012  -12.9498   -0.8777 O.3       1 <1>        -0.4521 
     10 C10        -0.0274  -10.7583   -0.6874 C.ar      1 <1>        -0.0583 
     11 C11        -0.9310   -9.8020   -1.1707 C.ar      1 <1>        -0.0541 
     12 C12        -0.5410   -8.4674   -1.3187 C.ar      1 <1>        -0.0073 
     13 C13         0.7475   -8.0688   -0.9594 C.ar      1 <1>         0.1560 
     14 C14         1.6473   -9.0078   -0.4527 C.ar      1 <1>        -0.0073 
     15 C15         1.2597  -10.3436   -0.3182 C.ar      1 <1>        -0.0541 
     16 F16         1.1158   -6.7978   -1.0990 F         1 <1>        -0.1644 
     17 C17        -1.4709  -12.5943   -1.6130 C.ar      1 <1>        -0.0069 
     18 C18        -1.0927  -12.8528   -2.9339 C.ar      1 <1>         0.0352 
     19 N19        -2.0181  -13.2115   -3.8468 N.ar      1 <1>        -0.2436 
     20 C20        -3.3201  -13.3091   -3.5111 C.ar      1 <1>         0.1068 
     21 N21        -3.7224  -13.0304   -2.2548 N.ar      1 <1>        -0.2436 
     22 C22        -2.8347  -12.6656   -1.3079 C.ar      1 <1>         0.0352 
     23 H1         -1.3219  -11.7783    4.1107 H         1 <1>         0.0675 
     24 H2         -1.7907  -14.2013    4.3489 H         1 <1>         0.0772 
     25 H3         -1.7915  -15.6526    2.3279 H         1 <1>         0.0671 
     26 H4         -1.2499  -14.7042    0.1312 H         1 <1>         0.0761 
     27 H5          0.7225  -13.8967   -0.8954 H         1 <1>         0.1842 
     28 H6         -1.9464  -10.0773   -1.4328 H         1 <1>         0.0757 
     29 H7         -1.2369   -7.7342   -1.7124 H         1 <1>         0.0665 
     30 H8          2.6453   -8.6946   -0.1652 H         1 <1>         0.0665 
     31 H9          1.9704  -11.0590    0.0834 H         1 <1>         0.0757 
     32 H10        -0.0548  -12.7655   -3.2366 H         1 <1>         0.1074 
     33 H11        -4.0480  -13.6129   -4.2551 H         1 <1>         0.1261 
     34 H12        -3.1985  -12.4265   -0.3150 H         1 <1>         0.1074 
@<TRIPOS>BOND
     1    2    1 1    
     2    2    3 ar   
     3    3    4 ar   
     4    4    5 ar   
     5    5    6 ar   
     6    6    7 ar   
     7    2    7 ar   
     8    7    8 1    
     9    8    9 1    
    10    8   10 1    
    11   10   11 ar   
    12   11   12 ar   
    13   12   13 ar   
    14   13   14 ar   
    15   14   15 ar   
    16   10   15 ar   
    17   13   16 1    
    18    8   17 1    
    19   17   18 ar   
    20   18   19 ar   
    21   19   20 ar   
    22   20   21 ar   
    23   21   22 ar   
    24   17   22 ar   
    25    3   23 1    
    26    4   24 1    
    27    5   25 1    
    28    6   26 1    
    29    9   27 1    
    30   11   28 1    
    31   12   29 1    
    32   14   30 1    
    33   15   31 1    
    34   18   32 1    
    35   20   33 1    
    36   22   34 1    
@<TRIPOS>SUBSTRUCTURE
     1 ****        2 TEMP              0 ****  ****    0 ROOT 
@<TRIPOS>NORMAL
@<TRIPOS>FF_PBC
FORCE_FIELD_SETUP_FEATURE Force Field Setup information
v1.0  0 0.000000 0.000000 0.000000 0.000000 0.000000 0.000000 NONE 0 0 0 0 1 0 0 0 0 0 0 0 0
