#	Name:			PISM01021
#	Creating user name:	malab
#	Creation time:		Mon Jul 01 22:38:37 2019

#	Modifying user name:	malab
#	Modification time:	Mon Jul 01 22:49:15 2019

@<TRIPOS>MOLECULE
PISM01021
   54    58     1     1     0
SMALL
GAST_HUCK


@<TRIPOS>ATOM
      1 O1          6.5664    9.0392   22.0829 O.2       1 <1>        -0.4441 
      2 C2          7.2360    9.8980   22.6322 C.2       1 <1>         0.0666 
      3 C3          8.0356   10.8340   21.8309 C.2       1 <1>        -0.0373 
      4 C4          8.7495   11.7902   22.4348 C.2       1 <1>        -0.0500 
      5 C5          8.7435   11.9305   23.9102 C.2       1 <1>         0.0395 
      6 C6          7.9623   10.9564   24.7101 C.2       1 <1>         0.1275 
      7 C7          7.2524   10.0027   24.0979 C.2       1 <1>        -0.0198 
      8 C8          9.4246   12.9003   24.5335 C.2       1 <1>         0.0253 
      9 C9         10.2337   13.9194   23.7617 C.ar      1 <1>         0.0247 
     10 C10         9.5502   14.8723   22.9993 C.ar      1 <1>        -0.0385 
     11 C11        10.2573   15.8433   22.2860 C.ar      1 <1>        -0.0494 
     12 C12        11.6530   15.8635   22.3412 C.ar      1 <1>        -0.0494 
     13 C13        12.3357   14.9073   23.0985 C.ar      1 <1>        -0.0332 
     14 C14        11.6348   13.9228   23.8057 C.ar      1 <1>         0.0787 
     15 C15         9.3900   12.9657   26.0430 C.ar      1 <1>         0.0432 
     16 C16         8.6751   11.9831   26.7334 C.ar      1 <1>         0.1462 
     17 O17         7.9506   11.0083   26.0485 O.3       1 <1>        -0.2389 
     18 C18        10.0581   13.9695   26.7544 C.ar      1 <1>        -0.0500 
     19 C19        10.0823   13.9380   28.1514 C.ar      1 <1>        -0.0274 
     20 C20         9.4201   12.9188   28.8389 C.ar      1 <1>         0.1052 
     21 C21         8.6840   11.9667   28.1300 C.ar      1 <1>         0.0170 
     22 O22         9.4991   12.8564   30.2283 O.3       1 <1>        -0.2645 
     23 C23        10.3857   11.8403   30.7209 C.3       1 <1>         0.2383 
     24 C24        11.8016   12.1017   30.2613 C.2       1 <1>        -0.0014 
     25 C25        12.5891   12.3679   31.3009 C.2       1 <1>         0.0292 
     26 C26        11.6903   12.2635   32.4448 C.2       1 <1>         0.2495 
     27 O27        10.4334   11.9479   32.1571 O.3       1 <1>        -0.2308 
     28 O28        12.0633   12.4458   33.5907 O.2       1 <1>        -0.3691 
     29 C29        14.0589   12.6878   31.2938 C.3       1 <1>        -0.0323 
     30 C30        12.4041   12.8847   24.5978 C.2       1 <1>         0.2679 
     31 O31        13.6223   12.9549   24.6472 O.2       1 <1>        -0.3545 
     32 O32        11.7465   11.9048   25.2347 O.3       1 <1>        -0.2773 
     33 C33        12.5908   10.9716   25.9357 C.3       1 <1>         0.0729 
     34 C34        11.6716    9.9387   26.6300 C.3       1 <1>        -0.0373 
     35 H1          8.0322   10.7268   20.7455 H         1 <1>         0.0517 
     36 H2          9.3351   12.4553   21.8001 H         1 <1>         0.0660 
     37 H3          6.6756    9.2881   24.6852 H         1 <1>         0.0191 
     38 H4          8.4650   14.8601   22.9622 H         1 <1>         0.0701 
     39 H5          9.7244   16.5799   21.6918 H         1 <1>         0.0671 
     40 H6         12.2069   16.6218   21.7954 H         1 <1>         0.0685 
     41 H7         13.4206   14.9351   23.1314 H         1 <1>         0.0692 
     42 H8         10.5636   14.7768   26.2357 H         1 <1>         0.0652 
     43 H9         10.6164   14.7013   28.7080 H         1 <1>         0.0527 
     44 H10         8.1189   11.2097   28.6622 H         1 <1>         0.0506 
     45 H11        10.0526   10.8268   30.4427 H         1 <1>         0.1205 
     46 H12        12.1354   12.0811   29.2248 H         1 <1>         0.0706 
     47 H13        14.2134   13.6937   30.8761 H         1 <1>         0.0347 
     48 H14        14.6002   11.9539   30.6782 H         1 <1>         0.0347 
     49 H15        14.4608   12.6596   32.3178 H         1 <1>         0.0347 
     50 H16        13.2008   11.4854   26.6985 H         1 <1>         0.0608 
     51 H17        13.2599   10.4502   25.2297 H         1 <1>         0.0608 
     52 H18        11.0404    9.4353   25.8810 H         1 <1>         0.0255 
     53 H19        11.0189   10.4444   27.3570 H         1 <1>         0.0255 
     54 H20        12.2717    9.1818   27.1591 H         1 <1>         0.0255 
@<TRIPOS>BOND
     1    2    1 2    
     2    2    3 1    
     3    3    4 2    
     4    4    5 1    
     5    5    6 1    
     6    6    7 2    
     7    2    7 1    
     8    5    8 2    
     9    8    9 1    
    10    9   10 ar   
    11   10   11 ar   
    12   11   12 ar   
    13   12   13 ar   
    14   13   14 ar   
    15    9   14 ar   
    16    8   15 1    
    17   15   16 ar   
    18   16   17 1    
    19    6   17 1    
    20   15   18 ar   
    21   18   19 ar   
    22   19   20 ar   
    23   20   21 ar   
    24   16   21 ar   
    25   20   22 1    
    26   22   23 1    
    27   23   24 1    
    28   24   25 2    
    29   25   26 1    
    30   26   27 1    
    31   23   27 1    
    32   26   28 2    
    33   25   29 1    
    34   14   30 1    
    35   30   31 2    
    36   30   32 1    
    37   32   33 1    
    38   33   34 1    
    39    3   35 1    
    40    4   36 1    
    41    7   37 1    
    42   10   38 1    
    43   11   39 1    
    44   12   40 1    
    45   13   41 1    
    46   18   42 1    
    47   19   43 1    
    48   21   44 1    
    49   23   45 1    
    50   24   46 1    
    51   29   47 1    
    52   29   48 1    
    53   29   49 1    
    54   33   50 1    
    55   33   51 1    
    56   34   52 1    
    57   34   53 1    
    58   34   54 1    
@<TRIPOS>SUBSTRUCTURE
     1 ****        2 TEMP              0 ****  ****    0 ROOT 
@<TRIPOS>NORMAL
@<TRIPOS>FF_PBC
FORCE_FIELD_SETUP_FEATURE Force Field Setup information
v1.0  0 0.000000 0.000000 0.000000 0.000000 0.000000 0.000000 NONE 0 0 0 0 1 0 0 0 0 0 0 0 0
