#	Name:			PISM00170
#	Creating user name:	14062
#	Creation time:		Sun Mar 31 14:51:28 2019

#	Modifying user name:	14062
#	Modification time:	Sun Mar 31 14:53:37 2019

@<TRIPOS>MOLECULE
PISM00170
   33    35     1     2     0
SMALL
GAST_HUCK


@<TRIPOS>ATOM
      1 C1         -3.7756    4.9639   -9.4871 C.3       1 CN          0.1135 
      2 C2         -2.8274    6.1822   -9.4120 C.3       1 CN          0.1145 
      3 C3         -2.8868    6.4948   -7.8982 C.3       1 CN          0.1381 
      4 C4         -3.1129    5.0982   -7.2616 C.3       1 CN          0.1959 
      5 O5         -3.3008    4.1987   -8.3688 O.3       1 CN         -0.3372 
      6 N6         -1.9733    4.6803   -6.4575 N.pl3     1 CN         -0.2236 
      7 C7         -1.1041    3.7613   -6.7995 C.2       1 CN          0.0302 
      8 C8         -0.1924    3.6092   -5.8252 C.2       1 CN         -0.0543 
      9 C9         -0.5788    4.5793   -4.7376 C.ar      1 CN          0.0433 
     10 C10        -1.7067    5.1951   -5.2421 C.ar      1 CN          0.1399 
     11 N11        -2.3464    6.1452   -4.5371 N.ar      1 CN         -0.2771 
     12 C12        -1.8577    6.4855   -3.3236 C.ar      1 CN          0.0500 
     13 N13        -0.7537    5.8914   -2.8109 N.ar      1 CN         -0.2733 
     14 C14        -0.0829    4.9305   -3.4829 C.ar      1 CN          0.1162 
     15 N15         1.0128    4.3520   -2.9446 N.pl3     1 CN         -0.3157 
     16 H16         0.6533    2.9230   -5.8214 H         1 CN          0.0311 
     17 H1         -4.8196    5.2856   -9.3284 H         1 CN          0.0647 
     18 O18        -4.0178    7.3445   -7.6170 O.3       1 CN         -0.3836 
     19 O19        -3.2515    7.3225  -10.1842 O.3       1 CN         -0.3864 
     20 C20        -3.6736    4.1566  -10.8053 C.3       1 CN          0.0730 
     21 O21        -4.6296    3.0798  -10.7768 O.3       1 CN         -0.3924 
     22 H2         -1.8015    5.8702   -9.6775 H         1 CN          0.0648 
     23 H3         -1.9566    6.9680   -7.5388 H         1 CN          0.0676 
     24 H4         -4.0259    5.1118   -6.6427 H         1 CN          0.0991 
     25 H5         -1.1006    3.1915   -7.7296 H         1 CN          0.0924 
     26 H6         -2.3619    7.2530   -2.7467 H         1 CN          0.0975 
     27 H7          1.3367    4.6474   -2.0128 H         1 CN          0.1826 
     28 H8          1.5251    3.6183   -3.4535 H         1 CN          0.1826 
     29 H9         -3.9654    8.1652   -8.0992 H         1 CN          0.2101 
     30 H10        -3.2468    7.1648  -11.1225 H         1 CN          0.2100 
     31 H11        -2.6495    3.7592  -10.9034 H         1 CN          0.0584 
     32 H12        -3.8876    4.8171  -11.6616 H         1 CN          0.0584 
     33 H13        -4.6076    2.5340  -11.5575 H         1 CN          0.2095 
@<TRIPOS>BOND
     1    1    2 1    
     2    3    2 1    
     3    4    3 1    
     4    4    5 1    
     5    5    1 1    
     6    6    4 1    
     7    7    6 1    
     8    8    7 2    
     9    8    9 1    
    10    9   10 ar   
    11   10    6 1    
    12   10   11 ar   
    13   11   12 ar   
    14   13   12 ar   
    15   14   13 ar   
    16    9   14 ar   
    17   14   15 1    
    18    1   17 1    
    19   16    8 1    
    20    3   18 1    
    21    2   19 1    
    22    1   20 1    
    23   20   21 1    
    24    2   22 1    
    25    3   23 1    
    26    4   24 1    
    27    7   25 1    
    28   12   26 1    
    29   15   27 1    
    30   15   28 1    
    31   18   29 1    
    32   19   30 1    
    33   20   31 1    
    34   20   32 1    
    35   21   33 1    
@<TRIPOS>SUBSTRUCTURE
     1 CN         16 PERM              0 ****  ****    0 ROOT 
@<TRIPOS>NORMAL
@<TRIPOS>FF_PBC
FORCE_FIELD_SETUP_FEATURE Force Field Setup information
v1.0  0 0.000000 0.000000 0.000000 0.000000 0.000000 0.000000 NONE 0 0 0 0 1 0 0 0 0 0 0 0 0
@<TRIPOS>RENDERING_ATTRS
ANTIALIASED_LINES 
1,2,3,4,5,6,7,8,9,10,11,12,13,14,15,16,18,19,20,21
