#	Name:			PISM00059
#	Creating user name:	baoopengkun
#	Creation time:		Thu Dec 27 12:36:36 2018

#	Modifying user name:	baoopengkun
#	Modification time:	Thu Dec 27 12:37:11 2018

@<TRIPOS>MOLECULE
PISM00059
   26    27     1     1     0
SMALL
GAST_HUCK


@<TRIPOS>ATOM
      1 O1          2.5566   -6.9336  -22.7385 O.2       1 <1>        -0.3692 
      2 C2          2.3365   -5.9117  -22.1088 C.2       1 <1>         0.2584 
      3 C3          1.7873   -4.7600  -22.8628 C.2       1 <1>         0.1938 
      4 O4          2.2621   -4.4656  -24.0806 O.3       1 <1>        -0.2418 
      5 C5          1.5287   -3.3941  -24.3935 C.2       1 <1>         0.1579 
      6 C6          0.6359   -2.9962  -23.4867 C.2       1 <1>        -0.0443 
      7 C7          0.8138   -3.9647  -22.4089 C.2       1 <1>        -0.0374 
      8 Br8         1.7426   -2.4850  -26.0361 Br        1 <1>        -0.0086 
      9 N9          2.5817   -5.8872  -20.8251 N.pl3     1 <1>        -0.2336 
     10 C10         2.4220   -4.7797  -20.0601 C.ar      1 <1>         0.0835 
     11 C11         2.9671   -3.5561  -20.4671 C.ar      1 <1>        -0.0197 
     12 C12         2.7008   -2.3891  -19.7475 C.ar      1 <1>         0.0353 
     13 C13         1.9395   -2.4523  -18.5784 C.ar      1 <1>        -0.0540 
     14 C14         1.4610   -3.6847  -18.1252 C.ar      1 <1>        -0.0502 
     15 C15         1.7146   -4.8533  -18.8529 C.ar      1 <1>         0.0831 
     16 Cl16        3.3207   -0.8514  -20.3117 Cl        1 <1>        -0.0696 
     17 H1         -0.0572   -2.1572  -23.5341 H         1 <1>         0.0415 
     18 H2          0.2655   -4.0079  -21.4686 H         1 <1>         0.0451 
     19 H3          2.9014   -6.7599  -20.3733 H         1 <1>         0.2120 
     20 C20         1.2239   -6.1901  -18.3383 C.2       1 <1>         0.2532 
     21 O21         1.5675   -7.3147  -18.9714 O.3       1 <1>        -0.2955 
     22 O22         0.5189   -6.2395  -17.3427 O.2       1 <1>        -0.3644 
     23 H4          3.6033   -3.5044  -21.3444 H         1 <1>         0.0547 
     24 H5          1.7237   -1.5451  -18.0231 H         1 <1>         0.0534 
     25 H6          0.8903   -3.7291  -17.2026 H         1 <1>         0.0640 
     26 H7          1.1902   -8.0808  -18.5508 H         1 <1>         0.2519 
@<TRIPOS>BOND
     1    2    1 2    
     2    2    3 1    
     3    3    4 1    
     4    4    5 1    
     5    5    6 2    
     6    6    7 1    
     7    3    7 2    
     8    5    8 1    
     9    2    9 1    
    10    9   10 1    
    11   10   11 ar   
    12   11   12 ar   
    13   12   13 ar   
    14   13   14 ar   
    15   14   15 ar   
    16   10   15 ar   
    17   12   16 1    
    18    6   17 1    
    19    7   18 1    
    20    9   19 1    
    21   15   20 1    
    22   20   21 1    
    23   20   22 2    
    24   11   23 1    
    25   13   24 1    
    26   14   25 1    
    27   21   26 1    
@<TRIPOS>SUBSTRUCTURE
     1 ****        2 TEMP              0 ****  ****    0 ROOT 
@<TRIPOS>NORMAL
@<TRIPOS>FF_PBC
FORCE_FIELD_SETUP_FEATURE Force Field Setup information
v1.0  0 0.000000 0.000000 0.000000 0.000000 0.000000 0.000000 NONE 0 0 0 0 1 0 0 0 0 0 0 0 0
