#	Name:			PISM00414
#	Creating user name:	malab
#	Creation time:		Wed Apr 10 23:44:42 2019

#	Modifying user name:	malab
#	Modification time:	Wed Apr 10 23:50:27 2019

@<TRIPOS>MOLECULE
PISM00414
   38    38     1     2     0
SMALL
USER_CHARGES


@<TRIPOS>ATOM
      1 C1         -1.2621   -6.8978   20.7100 C.3       1 <1>         0.0000 
      2 C2         -1.5639   -7.3950   19.2457 C.3       1 <1>         0.0000 
      3 C3         -0.6785   -6.5988   18.2310 C.3       1 <1>         0.0000 
      4 C4          0.7602   -6.5734   18.6724 C.2       1 <1>         0.0000 
      5 C5          1.1340   -6.9471   20.0468 C.2       1 <1>         0.0000 
      6 C6          0.2159   -7.1244   21.0072 C.2       1 <1>         0.0000 
      7 O7          1.6308   -6.2531   17.8781 O.2       1 <1>         0.0000 
      8 C8         -3.0490   -7.1292   18.8524 C.3       1 <1>         0.0000 
      9 C9         -1.2068   -8.9060   19.0517 C.3       1 <1>         0.0000 
     10 C10         0.6181   -7.5353   22.4087 C.3       1 <1>         0.0000 
     11 C11        -2.1375   -7.3622   21.8714 C.2       1 <1>         0.0000 
     12 O12        -1.4870   -5.4746   20.8018 O.3       1 <1>         0.0000 
     13 C13        -4.9686   -8.1440   23.4635 C.2       1 <1>         0.0000 
     14 C14        -5.7603   -7.3553   22.4988 C.2       1 <1>         0.0000 
     15 O15        -5.3122   -7.0278   21.4125 O.2       1 <1>         0.0000 
     16 C16        -3.0192   -9.3915   24.3303 C.3       1 <1>         0.0000 
     17 H1         -1.0207   -5.5616   18.0976 H         1 <1>         0.0000 
     18 H2         -0.7248   -7.0735   17.2378 H         1 <1>         0.0000 
     19 H3          2.1960   -7.0799   20.2537 H         1 <1>         0.0000 
     20 H4         -3.2052   -7.3377   17.7828 H         1 <1>         0.0000 
     21 H5         -3.3150   -6.0776   19.0359 H         1 <1>         0.0000 
     22 H6         -3.7528   -7.7569   19.4080 H         1 <1>         0.0000 
     23 H7         -1.6806   -9.5627   19.7855 H         1 <1>         0.0000 
     24 H8         -0.1245   -9.0836   19.1262 H         1 <1>         0.0000 
     25 C25        -3.0191   -8.3659   21.9821 C.2       1 <1>         0.0000 
     26 H26        -3.2964   -9.0736   21.2104 H         1 <1>         0.0000 
     27 H9         -1.5271   -9.2458   18.0548 H         1 <1>         0.0000 
     28 H10         0.1031   -8.4643   22.6956 H         1 <1>         0.0000 
     29 H11         0.3595   -6.7392   23.1220 H         1 <1>         0.0000 
     30 H12         1.7000   -7.7178   22.4943 H         1 <1>         0.0000 
     31 H13        -2.0359   -6.7760   22.7873 H         1 <1>         0.0000 
     32 H14        -0.8871   -4.9277   20.3085 H         1 <1>         0.0000 
     33 C33        -3.7278   -8.6058   23.2544 C.2       1 <1>         0.0000 
     34 H15        -5.4492   -8.3553   24.4199 H         1 <1>         0.0000 
     35 H16        -6.7742   -7.0468   22.7525 H         1 <1>         0.0000 
     36 H17        -3.6221  -10.2669   24.6162 H         1 <1>         0.0000 
     37 H18        -2.8661   -8.7557   25.2152 H         1 <1>         0.0000 
     38 H19        -2.0380   -9.7452   23.9790 H         1 <1>         0.0000 
@<TRIPOS>BOND
     1    2    1 1    
     2    2    3 1    
     3    3    4 1    
     4    4    5 1    
     5    5    6 2    
     6    1    6 1    
     7    4    7 2    
     8    2    8 1    
     9    2    9 1    
    10    6   10 1    
    11    1   11 1    
    12    1   12 1    
    13   33   13 2    
    14   13   14 1    
    15   14   15 2    
    16   33   16 1    
    17    3   17 1    
    18    3   18 1    
    19    5   19 1    
    20    8   20 1    
    21    8   21 1    
    22    8   22 1    
    23    9   23 1    
    24    9   24 1    
    25   11   25 2    
    26   25   26 1    
    27    9   27 1    
    28   10   28 1    
    29   10   29 1    
    30   10   30 1    
    31   11   31 1    
    32   12   32 1    
    33   25   33 1    
    34   13   34 1    
    35   14   35 1    
    36   16   36 1    
    37   16   37 1    
    38   16   38 1    
@<TRIPOS>SUBSTRUCTURE
     1 ****        2 TEMP              0 ****  ****    0 ROOT 
@<TRIPOS>NORMAL
@<TRIPOS>FF_PBC
FORCE_FIELD_SETUP_FEATURE Force Field Setup information
v1.0  0 0.000000 0.000000 0.000000 0.000000 0.000000 0.000000 NONE 0 0 0 0 0 0 0 0 0 0 0 0 0
@<TRIPOS>RENDERING_ATTRS
ANTIALIASED_LINES 
1,2,3,4,5,6,7,8,9,10,11,12,13,14,15,16,25,26,33
