#	Name:			PISM00734
#	Creating user name:	baoopengkun
#	Creation time:		Thu Jan 24 23:26:20 2019

#	Modifying user name:	baoopengkun
#	Modification time:	Thu Jan 24 23:26:57 2019

@<TRIPOS>MOLECULE
PISM00734
   98   102     1     1     0
SMALL
GAST_HUCK


@<TRIPOS>ATOM
      1 C1          1.3687   13.5394  -14.7447 C.3       1 <1>        -0.0112 
      2 C2          1.2107   12.9896  -16.1914 C.3       1 <1>         0.1188 
      3 C3         -0.2715   12.5990  -16.4645 C.3       1 <1>         0.1204 
      4 C4         -1.1945   13.8285  -16.2160 C.3       1 <1>         0.0023 
      5 C5         -1.0276   14.3088  -14.7465 C.3       1 <1>         0.0685 
      6 C6          0.4386   14.7488  -14.4094 C.3       1 <1>        -0.0051 
      7 C7          0.5444   15.1671  -12.8878 C.3       1 <1>        -0.0276 
      8 C8         -0.3707   14.3374  -11.9260 C.3       1 <1>        -0.0063 
      9 C9         -1.8716   14.7741  -12.0624 C.3       1 <1>         0.0801 
     10 O10        -2.2267   15.7294  -13.0913 O.3       1 <1>        -0.2763 
     11 C11        -1.9708   15.4235  -14.3752 C.2       1 <1>         0.2375 
     12 O12        -2.5025   16.0858  -15.2516 O.2       1 <1>        -0.3701 
     13 C13         1.9956   15.2358  -12.3204 C.3       1 <1>        -0.0487 
     14 C14         2.0411   15.9843  -10.9491 C.3       1 <1>        -0.0468 
     15 C15         0.8589   15.6335   -9.9776 C.3       1 <1>        -0.0257 
     16 C16         0.2171   14.3079  -10.4706 C.3       1 <1>        -0.0298 
     17 C17        -0.6463   13.7869   -9.2924 C.3       1 <1>        -0.0491 
     18 C18         0.1042   14.3150   -8.0329 C.3       1 <1>        -0.0491 
     19 C19         1.2916   15.1921   -8.5362 C.3       1 <1>        -0.0303 
     20 O20         2.0876   11.8418  -16.2693 O.3       1 <1>        -0.2705 
     21 O21        -0.5805   11.5135  -15.5608 O.3       1 <1>        -0.2704 
     22 C22         0.2955   14.5394   -3.0753 C.3       1 <1>        -0.0415 
     23 C23         0.8522   15.9935  -15.2746 C.3       1 <1>        -0.0568 
     24 C24        -0.1734   16.8047   -9.8920 C.3       1 <1>        -0.0590 
     25 C25         1.6909   16.2949   -7.5014 C.3       1 <1>        -0.0117 
     26 C26         2.0133   15.6332   -6.1286 C.3       1 <1>         0.0883 
     27 C27         1.2969   16.1715   -4.8062 C.3       1 <1>         0.0885 
     28 C28         1.5101   15.4501   -3.4473 C.3       1 <1>        -0.0102 
     29 C29         2.1399   15.9468   -0.9628 C.3       1 <1>        -0.0649 
     30 C30         0.0414   13.4824   -4.1860 C.3       1 <1>        -0.0623 
     31 C31        -1.0171   15.3288   -2.8082 C.3       1 <1>        -0.0623 
     32 C32         2.9147   17.1313   -7.9738 C.3       1 <1>        -0.0597 
     33 C33        -1.7538   10.9073  -15.7867 C.2       1 <1>         0.2338 
     34 O34         2.5416   16.6123   -5.2701 O.3       1 <1>        -0.3677 
     35 C35         1.8704   16.5271   -2.3770 C.3       1 <1>        -0.0504 
     36 O36        -2.4851   11.1716  -16.7262 O.2       1 <1>        -0.3704 
     37 H1          2.4255   13.8262  -14.6264 H         1 <1>         0.0302 
     38 C38        -2.1199    9.8445  -14.7864 C.3       1 <1>         0.0459 
     39 C39        -1.1584    8.6350  -14.8964 C.3       1 <1>        -0.0469 
     40 C40         2.2714   11.3554  -17.5039 C.2       1 <1>         0.2338 
     41 O41         1.8096   11.8754  -18.5080 O.2       1 <1>        -0.3704 
     42 C42         3.1148   10.1103  -17.5695 C.3       1 <1>         0.0459 
     43 C43         3.2554    9.5672  -19.0149 C.3       1 <1>        -0.0469 
     44 H2          1.1678   12.7124  -14.0463 H         1 <1>         0.0302 
     45 H3          1.5498   13.7526  -16.9108 H         1 <1>         0.0679 
     46 H4         -0.3715   12.2653  -17.5113 H         1 <1>         0.0681 
     47 H5         -2.2494   13.5563  -16.3777 H         1 <1>         0.0323 
     48 H6         -0.9794   14.6200  -16.9466 H         1 <1>         0.0323 
     49 H7         -1.3448   13.4213  -14.1865 H         1 <1>         0.0560 
     50 H8          0.1944   16.2062  -12.8228 H         1 <1>         0.0311 
     51 H9         -0.3133   13.2768  -12.2210 H         1 <1>         0.0332 
     52 H10        -2.1870   15.3302  -11.1731 H         1 <1>         0.0616 
     53 H11        -2.5400   13.8989  -12.1269 H         1 <1>         0.0616 
     54 H12         2.6823   15.7644  -12.9986 H         1 <1>         0.0268 
     55 H13         2.3942   14.2143  -12.2148 H         1 <1>         0.0268 
     56 H14         2.0316   17.0660  -11.1601 H         1 <1>         0.0271 
     57 H15         3.0169   15.7546  -10.4930 H         1 <1>         0.0271 
     58 H16         1.0477   13.5750  -10.4872 H         1 <1>         0.0310 
     59 H17        -0.7256   12.6858   -9.3023 H         1 <1>         0.0268 
     60 H18        -1.6706   14.1835   -9.2999 H         1 <1>         0.0268 
     61 H19         0.4723   13.4815   -7.4117 H         1 <1>         0.0268 
     62 H20        -0.5822   14.9180   -7.4157 H         1 <1>         0.0268 
     63 H21         2.1675   14.5262   -8.6321 H         1 <1>         0.0310 
     64 H22         0.5515   13.9767   -2.1608 H         1 <1>         0.0299 
     65 H23         0.8061   15.8361  -16.3566 H         1 <1>         0.0237 
     66 H24         1.8850   16.3005  -15.0652 H         1 <1>         0.0237 
     67 H25         0.2013   16.8556  -15.0618 H         1 <1>         0.0237 
     68 H26        -0.6009   17.0587  -10.8679 H         1 <1>         0.0235 
     69 H27         0.3122   17.7206   -9.5274 H         1 <1>         0.0235 
     70 H28        -1.0050   16.5745   -9.2112 H         1 <1>         0.0235 
     71 H29         0.8442   16.9796   -7.3425 H         1 <1>         0.0327 
     72 H30         2.6632   14.7459   -6.0834 H         1 <1>         0.0625 
     73 H31         0.5517   16.9745   -4.8979 H         1 <1>         0.0625 
     74 H32         2.3897   14.7881   -3.5421 H         1 <1>         0.0329 
     75 H33         2.8584   15.1146   -1.0181 H         1 <1>         0.0230 
     76 H34         1.2113   15.5870   -0.4954 H         1 <1>         0.0230 
     77 H35         2.5630   16.7286   -0.3119 H         1 <1>         0.0230 
     78 H36        -0.7214   12.7574   -3.8602 H         1 <1>         0.0232 
     79 H37         0.9624   12.9286   -4.4257 H         1 <1>         0.0232 
     80 H38        -0.3237   13.9725   -5.0983 H         1 <1>         0.0232 
     81 H39        -1.3114   15.9156   -3.6907 H         1 <1>         0.0232 
     82 H40        -0.9116   16.0088   -1.9508 H         1 <1>         0.0232 
     83 H41        -1.8349   14.6284   -2.5762 H         1 <1>         0.0232 
     84 H42         3.7829   16.4756   -8.1399 H         1 <1>         0.0233 
     85 H43         3.1930   17.8871   -7.2240 H         1 <1>         0.0233 
     86 H44         2.6958   17.6740   -8.9018 H         1 <1>         0.0233 
     87 H45         2.7921   17.0368   -2.7065 H         1 <1>         0.0266 
     88 H46         1.0824   17.2938   -2.3148 H         1 <1>         0.0266 
     89 H47        -3.1563    9.5167  -14.9659 H         1 <1>         0.0516 
     90 H48        -2.0638   10.2820  -13.7770 H         1 <1>         0.0516 
     91 H49        -1.4297    7.8664  -14.1552 H         1 <1>         0.0255 
     92 H50        -0.1191    8.9506  -14.7135 H         1 <1>         0.0255 
     93 H51        -1.2222    8.1934  -15.9034 H         1 <1>         0.0255 
     94 H52         2.6500    9.3450  -16.9278 H         1 <1>         0.0516 
     95 H53         4.1110   10.3493  -17.1653 H         1 <1>         0.0516 
     96 H54         3.7295   10.3222  -19.6623 H         1 <1>         0.0255 
     97 H55         2.2631    9.3219  -19.4250 H         1 <1>         0.0255 
     98 H56         3.8762    8.6575  -19.0221 H         1 <1>         0.0255 
@<TRIPOS>BOND
     1    1    2 1    
     2    2    3 1    
     3    4    3 1    
     4    5    4 1    
     5    6    5 1    
     6    6    1 1    
     7    7    6 1    
     8    8    7 1    
     9    8    9 1    
    10    9   10 1    
    11   10   11 1    
    12   11   12 2    
    13   11    5 1    
    14   13    7 1    
    15   14   13 1    
    16   15   14 1    
    17   15   16 1    
    18   16    8 1    
    19   16   17 1    
    20   18   17 1    
    21   19   18 1    
    22   19   15 1    
    23    2   20 1    
    24    3   21 1    
    25   28   22 1    
    26    6   23 1    
    27   15   24 1    
    28   25   19 1    
    29   26   25 1    
    30   27   26 1    
    31   28   27 1    
    32   35   29 1    
    33   22   30 1    
    34   22   31 1    
    35   25   32 1    
    36   21   33 1    
    37   27   34 1    
    38   28   35 1    
    39   33   36 2    
    40   34   26 1    
    41   33   38 1    
    42   38   39 1    
    43   20   40 1    
    44   40   41 2    
    45   40   42 1    
    46   42   43 1    
    47    1   37 1    
    48    1   44 1    
    49    2   45 1    
    50    3   46 1    
    51    4   47 1    
    52    4   48 1    
    53    5   49 1    
    54    7   50 1    
    55    8   51 1    
    56    9   52 1    
    57    9   53 1    
    58   13   54 1    
    59   13   55 1    
    60   14   56 1    
    61   14   57 1    
    62   16   58 1    
    63   17   59 1    
    64   17   60 1    
    65   18   61 1    
    66   18   62 1    
    67   19   63 1    
    68   22   64 1    
    69   23   65 1    
    70   23   66 1    
    71   23   67 1    
    72   24   68 1    
    73   24   69 1    
    74   24   70 1    
    75   25   71 1    
    76   26   72 1    
    77   27   73 1    
    78   28   74 1    
    79   29   75 1    
    80   29   76 1    
    81   29   77 1    
    82   30   78 1    
    83   30   79 1    
    84   30   80 1    
    85   31   81 1    
    86   31   82 1    
    87   31   83 1    
    88   32   84 1    
    89   32   85 1    
    90   32   86 1    
    91   35   87 1    
    92   35   88 1    
    93   38   89 1    
    94   38   90 1    
    95   39   91 1    
    96   39   92 1    
    97   39   93 1    
    98   42   94 1    
    99   42   95 1    
   100   43   96 1    
   101   43   97 1    
   102   43   98 1    
@<TRIPOS>SUBSTRUCTURE
     1 ****        2 TEMP              0 ****  ****    0 ROOT 
@<TRIPOS>NORMAL
@<TRIPOS>FF_PBC
FORCE_FIELD_SETUP_FEATURE Force Field Setup information
v1.0  0 0.000000 0.000000 0.000000 0.000000 0.000000 0.000000 NONE 0 0 0 0 1 0 0 0 0 0 0 0 0
