#	Name:			PISM00001
#	Creating user name:	baoopengkun
#	Creation time:		Wed Nov 14 22:41:54 2018

#	Modifying user name:	baoopengkun
#	Modification time:	Wed Nov 14 22:48:58 2018

@<TRIPOS>MOLECULE
PISM00001
   49    50     1     2     0
SMALL
GAST_HUCK


@<TRIPOS>ATOM
      1 C1         -5.2412    7.1631   10.2340 C.ar      1 <1>         0.1049 
      2 C2         -5.8936    7.3056   11.4658 C.ar      1 <1>        -0.0378 
      3 C3         -6.3943    8.5478   11.8594 C.ar      1 <1>        -0.0746 
      4 C4         -6.2437    9.6583   11.0274 C.ar      1 <1>        -0.0378 
      5 C5         -5.6006    9.5256    9.7900 C.ar      1 <1>         0.1049 
      6 C6         -5.1170    8.2736    9.3857 C.ar      1 <1>         0.1135 
      7 O7         -4.7051    5.9304    9.8341 O.3       1 <1>        -0.3185 
      8 O8         -5.4238   10.6239    8.9302 O.3       1 <1>        -0.3185 
      9 C9         -5.9343   11.9335    9.2393 C.3       1 <1>         0.0609 
     10 C10        -4.4619    8.1394    8.0210 C.2       1 <1>         0.2279 
     11 O11        -4.1747    7.0278    7.6120 O.2       1 <1>        -0.3833 
     12 N12        -4.2008    9.2288    7.2614 N.am      1 <1>        -0.1994 
     13 C13        -3.6289    9.2070    6.0359 C.2       1 <1>         0.2395 
     14 C14        -3.3865   10.3032    5.3125 C.2       1 <1>        -0.0388 
     15 C15        -2.7739    9.7629    4.0984 C.2       1 <1>        -0.0624 
     16 C16        -2.7735    8.4462    4.3180 C.2       1 <1>         0.1375 
     17 O17        -3.2765    8.0405    5.4865 O.3       1 <1>        -0.1779 
     18 C18        -2.2693   10.4880    2.8673 C.3       1 <1>        -0.0736 
     19 C19        -0.8268   10.0129    2.4816 C.3       1 <1>        -0.0920 
     20 C20         0.1535    9.7384    3.6603 C.3       1 <1>        -0.0764 
     21 C21        -3.2532   10.0819    1.7250 C.3       1 <1>        -0.1010 
     22 C22        -2.3752   12.0449    3.0111 C.3       1 <1>        -0.0920 
     23 C23        -1.3882   12.7230    3.9983 C.3       1 <1>        -0.0764 
     24 C24        -4.8225    4.7317   10.6167 C.3       1 <1>         0.0609 
     25 H1         -6.0257    6.4676   12.1393 H         1 <1>         0.0463 
     26 H2         -6.9010    8.6505   12.8150 H         1 <1>         0.0598 
     27 H3         -6.6362   10.6083   11.3688 H         1 <1>         0.0463 
     28 H4         -5.6795   12.6009    8.4027 H         1 <1>         0.0581 
     29 H5         -5.4698   12.3356   10.1529 H         1 <1>         0.0581 
     30 H6         -7.0301   11.9164    9.3451 H         1 <1>         0.0581 
     31 H7         -4.4515   10.1240    7.6306 H         1 <1>         0.2342 
     32 H8         -3.6057   11.3353    5.5816 H         1 <1>         0.0113 
     33 H9         -2.3876    7.7274    3.5961 H         1 <1>         0.1601 
     34 H10        -0.3797   10.7547    1.8002 H         1 <1>         0.0118 
     35 H11        -0.8856    9.0629    1.9250 H         1 <1>         0.0118 
     36 H12         1.1466    9.4897    3.2526 H         1 <1>         0.0219 
     37 H13        -0.1740    8.8846    4.2704 H         1 <1>         0.0219 
     38 H14         0.2765   10.5971    4.3291 H         1 <1>         0.0219 
     39 H15        -4.2769   10.4172    1.9549 H         1 <1>         0.0084 
     40 H16        -3.2856    8.9913    1.5800 H         1 <1>         0.0084 
     41 H17        -2.9466   10.5372    0.7705 H         1 <1>         0.0084 
     42 H18        -3.4025   12.3025    3.3171 H         1 <1>         0.0118 
     43 H19        -2.2085   12.5143    2.0271 H         1 <1>         0.0118 
     44 H20        -1.6737   13.7777    4.1396 H         1 <1>         0.0219 
     45 H21        -0.3651   12.7132    3.5934 H         1 <1>         0.0219 
     46 H22        -1.3965   12.2334    4.9822 H         1 <1>         0.0219 
     47 H23        -4.3266    3.9230   10.0598 H         1 <1>         0.0581 
     48 H24        -5.8782    4.4558   10.7619 H         1 <1>         0.0581 
     49 H25        -4.3186    4.8411   11.5892 H         1 <1>         0.0581 
@<TRIPOS>BOND
     1    2    1 ar   
     2    2    3 ar   
     3    3    4 ar   
     4    6    5 ar   
     5    4    5 ar   
     6    1    6 ar   
     7    1    7 1    
     8    5    8 1    
     9    8    9 1    
    10    6   10 1    
    11   10   11 2    
    12   10   12 am   
    13   12   13 am   
    14   13   14 2    
    15   14   15 1    
    16   16   15 2    
    17   17   16 1    
    18   13   17 1    
    19   15   18 1    
    20   18   19 1    
    21   19   20 1    
    22   18   21 1    
    23   18   22 1    
    24   22   23 1    
    25    7   24 1    
    26    2   25 1    
    27    3   26 1    
    28    4   27 1    
    29    9   28 1    
    30    9   29 1    
    31    9   30 1    
    32   12   31 1    
    33   14   32 1    
    34   16   33 1    
    35   19   34 1    
    36   19   35 1    
    37   20   36 1    
    38   20   37 1    
    39   20   38 1    
    40   21   39 1    
    41   21   40 1    
    42   21   41 1    
    43   22   42 1    
    44   22   43 1    
    45   23   44 1    
    46   23   45 1    
    47   23   46 1    
    48   24   47 1    
    49   24   48 1    
    50   24   49 1    
@<TRIPOS>SUBSTRUCTURE
     1 ****        2 TEMP              0 ****  ****    0 ROOT 
@<TRIPOS>NORMAL
@<TRIPOS>FF_PBC
FORCE_FIELD_SETUP_FEATURE Force Field Setup information
v1.0  0 0.000000 0.000000 0.000000 0.000000 0.000000 0.000000 NONE 0 0 0 0 1 0 0 0 0 0 0 0 0
@<TRIPOS>RENDERING_ATTRS
BALL_AND_STICK  
*
