#	Name:			PISM00485
#	Creating user name:	baoopengkun
#	Creation time:		Wed Feb 27 22:08:35 2019

#	Modifying user name:	baoopengkun
#	Modification time:	Wed Feb 27 22:17:53 2019

@<TRIPOS>MOLECULE
PISM00485
   13    13     1     1     0
SMALL
GAST_HUCK


@<TRIPOS>ATOM
      1 C1         27.9498    6.0669   -7.6851 C.2       1 <1>        -0.0818 
      2 C2         26.9655    6.7435   -6.7267 C.3       1 <1>        -0.0229 
      3 C3         28.0816    7.3558   -7.5780 C.2       1 <1>        -0.0818 
      4 C4         28.6320    8.7309   -7.8146 C.3       1 <1>        -0.0451 
      5 C5         28.2164    4.6667   -8.1523 C.3       1 <1>        -0.0451 
      6 H1         27.1459    6.6347   -5.6473 H         1 <1>         0.0316 
      7 H2         25.9287    6.8773   -7.0685 H         1 <1>         0.0316 
      8 H3         29.4686    8.6763   -8.5265 H         1 <1>         0.0356 
      9 H4         28.9897    9.1539   -6.8644 H         1 <1>         0.0356 
     10 H5         27.8444    9.3780   -8.2277 H         1 <1>         0.0356 
     11 H6         27.3184    4.2640   -8.6435 H         1 <1>         0.0356 
     12 H7         28.4755    4.0333   -7.2913 H         1 <1>         0.0356 
     13 H8         29.0522    4.6689   -8.8672 H         1 <1>         0.0356 
@<TRIPOS>BOND
     1    2    1 1    
     2    2    3 1    
     3    1    3 2    
     4    3    4 1    
     5    1    5 1    
     6    2    6 1    
     7    2    7 1    
     8    4    8 1    
     9    4    9 1    
    10    4   10 1    
    11    5   11 1    
    12    5   12 1    
    13    5   13 1    
@<TRIPOS>SUBSTRUCTURE
     1 ****        2 TEMP              0 ****  ****    0 ROOT 
@<TRIPOS>NORMAL
@<TRIPOS>FF_PBC
FORCE_FIELD_SETUP_FEATURE Force Field Setup information
v1.0  0 0.000000 0.000000 0.000000 0.000000 0.000000 0.000000 NONE 0 0 0 0 1 0 0 0 0 0 0 0 0
