#	Name:			PISM00332
#	Creating user name:	malab
#	Creation time:		Tue Apr 09 23:29:08 2019

#	Modifying user name:	malab
#	Modification time:	Tue Apr 09 23:34:23 2019

@<TRIPOS>MOLECULE
PISM00332
   40    40     1     2     0
SMALL
USER_CHARGES


@<TRIPOS>ATOM
      1 C1         -9.6533    2.4156   -0.2111 C.3       1 <1>         0.0000 
      2 C2         -8.1420    1.8238    0.0496 C.3       1 <1>         0.0000 
      3 C3         -7.6194    3.3101   -0.2930 C.3       1 <1>         0.0000 
      4 C4         -8.0835    4.2776    0.7689 C.2       1 <1>         0.0000 
      5 C5         -9.3959    4.8148    0.4898 C.2       1 <1>         0.0000 
      6 C6        -10.1496    3.8832   -0.0914 C.2       1 <1>         0.0000 
      7 C7         -6.7663    1.3305   -0.6781 C.3       1 <1>         0.0000 
      8 C8         -8.7401    0.3903   -0.4539 C.3       1 <1>         0.0000 
      9 C9         -8.6704    0.0628   -1.8924 C.1       1 <1>         0.0000 
     10 N10        -8.6215   -0.1873   -3.0211 N.1       1 <1>         0.0000 
     11 O11        -7.4447    4.6012    1.7591 O.2       1 <1>         0.0000 
     12 C12       -11.5085    4.2749   -0.6592 C.3       1 <1>         0.0000 
     13 C13       -10.4870    1.9264    0.9805 C.2       1 <1>         0.0000 
     14 O14       -10.1048    2.1016   -1.5490 O.3       1 <1>         0.0000 
     15 H3         -7.9021    3.6519   -1.3092 H         1 <1>         0.0000 
     16 H4         -6.5562    3.6140   -0.2215 H         1 <1>         0.0000 
     17 H5         -9.6765    5.8473    0.7007 H         1 <1>         0.0000 
     18 H6         -6.6085    1.7082   -1.7076 H         1 <1>         0.0000 
     19 H7         -5.9005    1.5964   -0.0451 H         1 <1>         0.0000 
     20 H8         -6.4687    0.2698   -0.7779 H         1 <1>         0.0000 
     21 H9         -9.7899    0.0907   -0.3000 H         1 <1>         0.0000 
     22 H10        -8.2895   -0.4168    0.1549 H         1 <1>         0.0000 
     23 H11       -11.7831    5.3047   -0.3946 H         1 <1>         0.0000 
     24 H12       -12.3303    3.6330   -0.3196 H         1 <1>         0.0000 
     25 H13       -11.4730    4.2398   -1.7582 H         1 <1>         0.0000 
     26 C26        -9.9882    1.5366    2.1668 C.2       1 <1>         0.0000 
     27 C27       -10.8217    1.2158    3.3455 C.2       1 <1>         0.0000 
     28 C28       -11.5072    0.0755    3.5511 C.2       1 <1>         0.0000 
     29 C29       -11.5912   -1.1195    2.6941 C.2       1 <1>         0.0000 
     30 C30       -10.8797    2.2933    4.4041 C.3       1 <1>         0.0000 
     31 O31       -12.2352   -2.0813    3.0963 O.2       1 <1>         0.0000 
     32 O32       -10.9700   -1.1549    1.5165 O.3       1 <1>         0.0000 
     33 H1        -11.5737    1.8986    0.9331 H         1 <1>         0.0000 
     34 H2        -11.0327    1.9132   -1.6399 H         1 <1>         0.0000 
     35 H14        -8.9180    1.4666    2.3683 H         1 <1>         0.0000 
     36 H15       -12.0908    0.0092    4.4735 H         1 <1>         0.0000 
     37 H16       -10.1599    3.0963    4.1892 H         1 <1>         0.0000 
     38 H17       -10.6428    1.8789    5.3951 H         1 <1>         0.0000 
     39 H18       -11.8856    2.7354    4.4242 H         1 <1>         0.0000 
     40 H19       -11.0912   -1.9755    1.0523 H         1 <1>         0.0000 
@<TRIPOS>BOND
     1    2    1 1    
     2    2    3 1    
     3    3    4 1    
     4    4    5 1    
     5    5    6 2    
     6    1    6 1    
     7    2    7 1    
     8    2    8 1    
     9    8    9 1    
    10    9   10 3    
    11    4   11 2    
    12    6   12 1    
    13    1   13 1    
    14    1   14 1    
    15    3   15 1    
    16    3   16 1    
    17    5   17 1    
    18    7   18 1    
    19    7   19 1    
    20    7   20 1    
    21    8   21 1    
    22    8   22 1    
    23   12   23 1    
    24   12   24 1    
    25   12   25 1    
    26   13   26 2    
    27   26   27 1    
    28   27   28 2    
    29   28   29 1    
    30   27   30 1    
    31   29   31 2    
    32   29   32 1    
    33   13   33 1    
    34   14   34 1    
    35   26   35 1    
    36   28   36 1    
    37   30   37 1    
    38   30   38 1    
    39   30   39 1    
    40   32   40 1    
@<TRIPOS>SUBSTRUCTURE
     1 ****        2 TEMP              0 ****  ****    0 ROOT 
@<TRIPOS>NORMAL
@<TRIPOS>FF_PBC
FORCE_FIELD_SETUP_FEATURE Force Field Setup information
v1.0  0 0.000000 0.000000 0.000000 0.000000 0.000000 0.000000 NONE 0 0 0 0 0 0 0 0 0 0 0 0 0
@<TRIPOS>RENDERING_ATTRS
ANTIALIASED_LINES 
*
