#	Name:			PISM00946
#	Creating user name:	baoopengkun
#	Creation time:		Wed Dec 12 23:27:48 2018

#	Modifying user name:	baoopengkun
#	Modification time:	Wed Dec 12 23:31:43 2018

@<TRIPOS>MOLECULE
PISM00946
   33    34     1     1     0
SMALL
GAST_HUCK


@<TRIPOS>ATOM
      1 O1          8.1900   -9.7748    8.7770 O.2       1 <1>        -0.3646 
      2 C2          7.1594   -9.4184    8.2272 C.2       1 <1>         0.2529 
      3 O3          7.1141   -8.2402    7.5981 O.3       1 <1>        -0.2955 
      4 C4          5.9324  -10.3061    8.2611 C.ar      1 <1>         0.0827 
      5 C5          5.9728  -11.5020    8.9882 C.ar      1 <1>        -0.0510 
      6 C6          4.8511  -12.3321    9.0531 C.ar      1 <1>        -0.0682 
      7 C7          3.6751  -11.9579    8.4004 C.ar      1 <1>        -0.0678 
      8 C8          3.6302  -10.7621    7.6789 C.ar      1 <1>        -0.0337 
      9 C9          4.7639   -9.9448    7.5731 C.ar      1 <1>         0.0791 
     10 N10         4.7260   -8.8165    6.8176 N.pl3     1 <1>        -0.2752 
     11 C11         3.8932   -8.6903    5.7560 C.ar      1 <1>         0.0553 
     12 C12         3.8325   -9.7140    4.8048 C.ar      1 <1>        -0.0524 
     13 C13         3.0077   -9.5843    3.6861 C.ar      1 <1>        -0.0852 
     14 C14         2.2811   -8.4072    3.4956 C.ar      1 <1>        -0.0789 
     15 C15         2.3555   -7.3660    4.4287 C.ar      1 <1>        -0.0541 
     16 C16         3.1044   -7.5410    5.6029 C.ar      1 <1>        -0.0215 
     17 C17         3.0622   -6.4957    6.7298 C.3       1 <1>        -0.0366 
     18 C18         1.6149   -6.0514    4.1394 C.3       1 <1>        -0.0365 
     19 H1          7.9508   -7.7886    7.6489 H         1 <1>         0.2519 
     20 H2          6.8792  -11.7946    9.5092 H         1 <1>         0.0639 
     21 H3          4.8927  -13.2635    9.6099 H         1 <1>         0.0526 
     22 H4          2.7970  -12.5948    8.4549 H         1 <1>         0.0622 
     23 H5          2.6973  -10.4740    7.2052 H         1 <1>         0.0541 
     24 H6          5.3768   -8.0415    7.0264 H         1 <1>         0.2085 
     25 H7          4.4299  -10.6114    4.9292 H         1 <1>         0.0457 
     26 H8          2.9354  -10.3936    2.9658 H         1 <1>         0.0513 
     27 H9          1.6570   -8.3104    2.6129 H         1 <1>         0.0440 
     28 H10         3.2515   -6.9591    7.7096 H         1 <1>         0.0352 
     29 H11         2.0776   -6.0108    6.7924 H         1 <1>         0.0352 
     30 H12         3.8304   -5.7314    6.5403 H         1 <1>         0.0352 
     31 H13         1.3810   -5.9489    3.0690 H         1 <1>         0.0373 
     32 H14         2.2333   -5.1885    4.4282 H         1 <1>         0.0373 
     33 H15         0.6719   -6.0334    4.7057 H         1 <1>         0.0373 
@<TRIPOS>BOND
     1    2    1 2    
     2    2    3 1    
     3    2    4 1    
     4    4    5 ar   
     5    5    6 ar   
     6    6    7 ar   
     7    7    8 ar   
     8    8    9 ar   
     9    4    9 ar   
    10    9   10 1    
    11   10   11 1    
    12   11   12 ar   
    13   12   13 ar   
    14   13   14 ar   
    15   14   15 ar   
    16   15   16 ar   
    17   11   16 ar   
    18   16   17 1    
    19   15   18 1    
    20    3   19 1    
    21    5   20 1    
    22    6   21 1    
    23    7   22 1    
    24    8   23 1    
    25   10   24 1    
    26   12   25 1    
    27   13   26 1    
    28   14   27 1    
    29   17   28 1    
    30   17   29 1    
    31   17   30 1    
    32   18   31 1    
    33   18   32 1    
    34   18   33 1    
@<TRIPOS>SUBSTRUCTURE
     1 ****        2 TEMP              0 ****  ****    0 ROOT 
@<TRIPOS>NORMAL
@<TRIPOS>FF_PBC
FORCE_FIELD_SETUP_FEATURE Force Field Setup information
v1.0  0 0.000000 0.000000 0.000000 0.000000 0.000000 0.000000 NONE 0 0 0 0 1 0 0 0 0 0 0 0 0
