#	Name:			PISM00429
#	Creating user name:	baoopengkun
#	Creation time:		Sun Mar 31 18:45:19 2019

#	Modifying user name:	baoopengkun
#	Modification time:	Sun Mar 31 18:45:38 2019

@<TRIPOS>MOLECULE
PISM00429
   37    38     1     1     0
SMALL
GAST_HUCK


@<TRIPOS>ATOM
      1 C1         -3.1234   -1.4632  -15.3056 C.3       1 <1>        -0.0352 
      2 C2         -3.5566   -0.1279  -14.6663 C.3       1 <1>         0.0295 
      3 C3         -5.0215    0.0554  -14.4037 C.2       1 <1>         0.1496 
      4 C4         -6.0071   -0.8581  -14.9954 C.2       1 <1>         0.0134 
      5 C5         -5.6641   -2.0301  -15.5460 C.2       1 <1>        -0.0667 
      6 C6         -4.2318   -2.5249  -15.5580 C.3       1 <1>         0.0374 
      7 C7         -1.6909   -1.9638  -14.9840 C.3       1 <1>        -0.0705 
      8 C8         -3.1881   -0.1824  -16.1681 C.3       1 <1>        -0.0412 
      9 C9         -4.1761   -3.5193  -14.4248 C.2       1 <1>        -0.0861 
     10 C10        -4.1325   -4.8460  -14.6026 C.2       1 <1>        -0.0144 
     11 C11        -4.0659   -5.7910  -13.4678 C.2       1 <1>         0.0276 
     12 C12        -4.8189   -6.9013  -13.4167 C.2       1 <1>         0.0681 
     13 C13        -5.8227   -7.3427  -14.4036 C.2       1 <1>         0.2775 
     14 O14        -6.1314   -6.6298  -15.3446 O.2       1 <1>        -0.3439 
     15 O15        -6.4053   -8.5338  -14.2554 O.3       1 <1>        -0.2912 
     16 O16        -3.9358   -3.1787  -16.8020 O.3       1 <1>        -0.4654 
     17 C17        -3.1062   -5.4865  -12.3395 C.3       1 <1>        -0.0121 
     18 H1         -2.8224    0.3389  -13.9917 H         1 <1>         0.0511 
     19 C19        -6.6930   -2.9496  -16.1682 C.3       1 <1>        -0.0367 
     20 O20        -5.3985    0.9820  -13.7053 O.2       1 <1>        -0.3646 
     21 H2         -7.0456   -0.5308  -14.9645 H         1 <1>         0.0970 
     22 H3         -1.3711   -2.6577  -15.7755 H         1 <1>         0.0222 
     23 H4         -1.6892   -2.4957  -14.0218 H         1 <1>         0.0222 
     24 H5         -0.9633   -1.1404  -14.9229 H         1 <1>         0.0222 
     25 H6         -4.0224   -0.0778  -16.8787 H         1 <1>         0.0283 
     26 H7         -2.2472    0.3188  -16.4428 H         1 <1>         0.0283 
     27 H8         -4.1854   -3.1126  -13.4131 H         1 <1>         0.0537 
     28 H9         -4.1452   -5.2514  -15.6142 H         1 <1>         0.1123 
     29 H10        -4.7136   -7.5718  -12.5645 H         1 <1>         0.1013 
     30 H11        -7.0356   -8.7094  -14.9464 H         1 <1>         0.2519 
     31 H12        -3.9594   -2.5801  -17.5405 H         1 <1>         0.1803 
     32 H13        -2.6008   -6.3997  -11.9892 H         1 <1>         0.0431 
     33 H14        -3.6597   -5.0407  -11.4994 H         1 <1>         0.0431 
     34 H15        -2.3282   -4.7790  -12.6647 H         1 <1>         0.0431 
     35 H16        -6.4857   -3.0718  -17.2415 H         1 <1>         0.0416 
     36 H17        -7.7196   -2.5686  -16.0619 H         1 <1>         0.0416 
     37 H18        -6.6476   -3.9379  -15.6882 H         1 <1>         0.0416 
@<TRIPOS>BOND
     1    2    1 1    
     2    2    3 1    
     3    3    4 1    
     4    4    5 2    
     5    5    6 1    
     6    1    6 1    
     7    1    7 1    
     8    1    8 1    
     9    6    9 1    
    10    9   10 2    
    11   10   11 1    
    12   11   12 2    
    13   12   13 1    
    14   13   14 2    
    15   13   15 1    
    16    6   16 1    
    17   11   17 1    
    18    2    8 1    
    19    2   18 1    
    20    5   19 1    
    21    3   20 2    
    22    4   21 1    
    23    7   22 1    
    24    7   23 1    
    25    7   24 1    
    26    8   25 1    
    27    8   26 1    
    28    9   27 1    
    29   10   28 1    
    30   12   29 1    
    31   15   30 1    
    32   16   31 1    
    33   17   32 1    
    34   17   33 1    
    35   17   34 1    
    36   19   35 1    
    37   19   36 1    
    38   19   37 1    
@<TRIPOS>SUBSTRUCTURE
     1 ****        2 TEMP              0 ****  ****    0 ROOT 
@<TRIPOS>NORMAL
@<TRIPOS>FF_PBC
FORCE_FIELD_SETUP_FEATURE Force Field Setup information
v1.0  0 0.000000 0.000000 0.000000 0.000000 0.000000 0.000000 NONE 0 0 0 0 1 0 0 0 0 0 0 0 0
