#	Name:			PISM01071
#	Creating user name:	14062
#	Creation time:		Thu Jul 11 23:58:00 2019

#	Modifying user name:	14062
#	Modification time:	Thu Jul 11 23:58:28 2019

@<TRIPOS>MOLECULE
PISM01071
   11     8     3     1     0
SMALL
GAST_HUCK


@<TRIPOS>ATOM
      1 Pt          4.4480    0.6005   -1.2617 Pt        1 <1>        -4.0000 
      2 Cl          5.6118    1.0459    0.5625 Cl        1 <1>         0.0000 
      3 Cl          3.0521    0.0063   -2.8677 Cl        1 <1>         0.0000 
      4 N           3.2353   -1.9700    0.1536 N.3       2 <2>        -0.3437 
      5 H           2.3526   -1.8652   -0.4534 H         2 <2>         0.1146 
      6 H           3.3556   -1.0331    0.6832 H         2 <2>         0.1146 
      7 H           4.0753   -1.9945   -0.5313 H         2 <2>         0.1146 
      8 N           2.1385    2.0907    0.3164 N.3       3 <3>        -0.3437 
      9 H           2.9114    2.6064   -0.2422 H         3 <3>         0.1146 
     10 H           1.9391    1.2020   -0.2696 H         3 <3>         0.1146 
     11 H           2.6000    1.7544    1.2289 H         3 <3>         0.1146 
@<TRIPOS>BOND
     1    1    2 1    
     2    1    3 1    
     3    5    4 1    
     4    4    6 1    
     5    4    7 1    
     6    9    8 1    
     7    8   10 1    
     8    8   11 1    
@<TRIPOS>SUBSTRUCTURE
     1 ****        1 TEMP              0 ****  ****    0 ROOT 
     2 ****        4 TEMP              0 ****  ****    0 ROOT 
     3 ****        8 TEMP              0 ****  ****    0 ROOT 
@<TRIPOS>NORMAL
@<TRIPOS>FF_PBC
FORCE_FIELD_SETUP_FEATURE Force Field Setup information
v1.0  0 0.000000 0.000000 0.000000 0.000000 0.000000 0.000000 NONE 0 0 0 0 1 0 0 0 0 0 0 0 0
@<TRIPOS>UNITY_ATOM_ATTR
1 1
AtomExpr +2
