#	Name:			PISM00814
#	Creating user name:	baoopengkun
#	Creation time:		Fri Nov 30 17:16:25 2018

#	Modifying user name:	baoopengkun
#	Modification time:	Fri Nov 30 17:18:52 2018

@<TRIPOS>MOLECULE
PISM00814
   34    35     1     2     0
SMALL
GAST_HUCK


@<TRIPOS>ATOM
      1 C1         -0.9117   -1.6865    4.4955 C.ar      1 <1>        -0.0686 
      2 C2         -1.3461   -2.8399    5.1552 C.ar      1 <1>        -0.0710 
      3 C3         -1.7857   -3.9419    4.4165 C.ar      1 <1>        -0.0354 
      4 C4         -1.8044   -3.8810    3.0212 C.ar      1 <1>         0.1249 
      5 C5         -1.3874   -2.7208    2.3641 C.ar      1 <1>        -0.0315 
      6 C6         -0.9169   -1.6252    3.0976 C.ar      1 <1>        -0.0307 
      7 F7         -2.2228   -4.9289    2.3156 F         1 <1>        -0.1855 
      8 C8         -0.4181   -0.3692    2.4134 C.2       1 <1>         0.0825 
      9 C9         -0.7707    0.9680    2.9398 C.2       1 <1>         0.2397 
     10 O10        -2.0310    1.3496    3.2158 O.3       1 <1>        -0.2865 
     11 C11        -3.0843    0.4238    2.8843 C.3       1 <1>         0.0638 
     12 O12         0.1288    1.7743    3.1050 O.2       1 <1>        -0.3770 
     13 C13         0.3764   -0.4426    1.3376 C.2       1 <1>         0.1065 
     14 O14         0.7504   -1.6400    0.8629 O.3       1 <1>        -0.2489 
     15 C15         1.5981   -1.5645   -0.2943 C.3       1 <1>         0.2460 
     16 C16         1.7890   -2.9699   -0.8089 C.2       1 <1>         0.0005 
     17 C17         1.2435   -3.1024   -2.0166 C.2       1 <1>         0.0294 
     18 C18         0.7116   -1.7743   -2.2984 C.2       1 <1>         0.2497 
     19 O19         0.9137   -0.8648   -1.3534 O.3       1 <1>        -0.2292 
     20 C20         1.1886   -4.3195   -2.8989 C.3       1 <1>        -0.0323 
     21 O21         0.1256   -1.5094   -3.3336 O.2       1 <1>        -0.3691 
     22 H1         -0.5663   -0.8359    5.0754 H         1 <1>         0.0521 
     23 H2         -1.3407   -2.8803    6.2403 H         1 <1>         0.0588 
     24 H3         -2.1140   -4.8449    4.9205 H         1 <1>         0.0545 
     25 H4         -1.4443   -2.6832    1.2820 H         1 <1>         0.0537 
     26 H5         -4.0305    0.9708    3.0087 H         1 <1>         0.0574 
     27 H6         -3.1170   -0.4365    3.5670 H         1 <1>         0.0574 
     28 H7         -3.0268    0.0799    1.8392 H         1 <1>         0.0574 
     29 H8          0.7027    0.4967    0.8812 H         1 <1>         0.1338 
     30 H9          2.5713   -1.0932   -0.0745 H         1 <1>         0.1227 
     31 H10         2.2961   -3.7613   -0.2582 H         1 <1>         0.0707 
     32 H11         1.8387   -5.1182   -2.5113 H         1 <1>         0.0347 
     33 H12         1.5175   -4.0520   -3.9142 H         1 <1>         0.0347 
     34 H13         0.1533   -4.6889   -2.9439 H         1 <1>         0.0347 
@<TRIPOS>BOND
     1    2    1 ar   
     2    2    3 ar   
     3    3    4 ar   
     4    4    5 ar   
     5    5    6 ar   
     6    1    6 ar   
     7    4    7 1    
     8    6    8 1    
     9    8    9 1    
    10    9   10 1    
    11   10   11 1    
    12    9   12 2    
    13    8   13 2    
    14   13   14 1    
    15   14   15 1    
    16   15   16 1    
    17   16   17 2    
    18   17   18 1    
    19   18   19 1    
    20   15   19 1    
    21   17   20 1    
    22   18   21 2    
    23    1   22 1    
    24    2   23 1    
    25    3   24 1    
    26    5   25 1    
    27   11   26 1    
    28   11   27 1    
    29   11   28 1    
    30   13   29 1    
    31   15   30 1    
    32   16   31 1    
    33   20   32 1    
    34   20   33 1    
    35   20   34 1    
@<TRIPOS>SUBSTRUCTURE
     1 ****        2 TEMP              0 ****  ****    0 ROOT 
@<TRIPOS>NORMAL
@<TRIPOS>FF_PBC
FORCE_FIELD_SETUP_FEATURE Force Field Setup information
v1.0  0 0.000000 0.000000 0.000000 0.000000 0.000000 0.000000 NONE 0 0 0 0 1 0 0 0 0 0 0 0 0
@<TRIPOS>RENDERING_ATTRS
ANTIALIASED_LINES 
*
