#	Name:			PISM00231
#	Creating user name:	14062
#	Creation time:		Sat Apr 06 01:34:04 2019

#	Modifying user name:	14062
#	Modification time:	Sat Apr 06 01:42:55 2019

@<TRIPOS>MOLECULE
PISM00231
   29    30     1     1     0
SMALL
GAST_HUCK


@<TRIPOS>ATOM
      1 C1         -4.9656    4.3499    3.8850 C.3       1 CN          0.0658 
      2 O2         -5.1899    3.2538    2.9764 O.3       1 CN         -0.2793 
      3 C3         -4.1865    2.9009    2.1486 C.2       1 CN          0.2497 
      4 O4         -4.3567    1.9122    1.4552 O.2       1 CN         -0.3691 
      5 C5         -2.8826    3.6698    2.0503 C.3       1 CN          0.1373 
      6 S6         -3.1778    5.2241    1.1343 S.3       1 CN         -0.1311 
      7 C7         -2.2581    4.7711   -0.3667 C.3       1 CN         -0.0006 
      8 C8         -2.1546    3.2328   -0.2876 C.3       1 CN         -0.0084 
      9 C9         -1.8245    2.9238    1.1942 C.3       1 CN          0.1202 
     10 O10        -0.5335    3.4673    1.5312 O.3       1 CN         -0.2750 
     11 C11         0.5741    2.9076    0.8915 C.ar      1 CN          0.2342 
     12 N12         0.5072    1.6677    0.3616 N.ar      1 CN         -0.2356 
     13 C13         1.5727    1.1250   -0.2631 C.ar      1 CN          0.0391 
     14 C14         2.7638    1.8516   -0.3581 C.ar      1 CN          0.0411 
     15 N15         2.8357    3.0877    0.1772 N.ar      1 CN         -0.2476 
     16 C16         1.7661    3.6322    0.7960 C.ar      1 CN          0.2290 
     17 C           1.8447    4.9568    1.3560 C.1       1 CN          0.1241 
     18 N           1.9039    6.0224    1.8060 N.1       1 CN         -0.3253 
     19 H1         -4.7448    5.2985    3.3754 H         1 CN          0.0577 
     20 H2         -4.1802    4.1207    4.6211 H         1 CN          0.0577 
     21 H3         -5.9054    4.4861    4.4402 H         1 CN          0.0577 
     22 H4         -2.4527    3.8612    3.0432 H         1 CN          0.0699 
     23 H5         -1.2608    5.2365   -0.3155 H         1 CN          0.0379 
     24 H6         -2.7761    5.1152   -1.2756 H         1 CN          0.0379 
     25 H7         -1.3910    2.8504   -0.9827 H         1 CN          0.0305 
     26 H8         -3.1220    2.7836   -0.5634 H         1 CN          0.0305 
     27 H9         -1.8346    1.8417    1.4119 H         1 CN          0.0703 
     28 H10         1.4985    0.1290   -0.6875 H         1 CN          0.0957 
     29 H11         3.6297    1.4304   -0.8582 H         1 CN          0.0857 
@<TRIPOS>BOND
     1    2    1 1    
     2    3    2 1    
     3    3    4 2    
     4    5    3 1    
     5    5    6 1    
     6    6    7 1    
     7    8    7 1    
     8    9    8 1    
     9    9    5 1    
    10   10    9 1    
    11   11   10 1    
    12   11   12 ar   
    13   12   13 ar   
    14   14   13 ar   
    15   15   14 ar   
    16   16   15 ar   
    17   16   11 ar   
    18   17   18 3    
    19   17   16 1    
    20    1   19 1    
    21    1   20 1    
    22    1   21 1    
    23    5   22 1    
    24    7   23 1    
    25    7   24 1    
    26    8   25 1    
    27    8   26 1    
    28    9   27 1    
    29   13   28 1    
    30   14   29 1    
@<TRIPOS>SUBSTRUCTURE
     1 CN         17 PERM              0 ****  ****    0 ROOT 
@<TRIPOS>NORMAL
@<TRIPOS>FF_PBC
FORCE_FIELD_SETUP_FEATURE Force Field Setup information
v1.0  0 0.000000 0.000000 0.000000 0.000000 0.000000 0.000000 NONE 0 0 0 0 1 0 0 0 0 0 0 0 0
