#	Name:			PISM01041
#	Creating user name:	malab
#	Creation time:		Tue Jul 02 22:27:52 2019

#	Modifying user name:	malab
#	Modification time:	Tue Jul 02 22:32:10 2019

@<TRIPOS>MOLECULE
PISM01041
   60    65     1     1     0
SMALL
GAST_HUCK


@<TRIPOS>ATOM
      1 C1         -8.8378    6.5677  -11.6936 C.3       1 <1>        -0.0166 
      2 C2         -8.4597    5.0616  -11.5824 C.3       1 <1>        -0.0244 
      3 C3         -7.9376    4.6780  -10.1601 C.3       1 <1>         0.0689 
      4 C4         -6.9197    5.7275   -9.6098 C.3       1 <1>         0.0934 
      5 C5         -7.6352    7.0912   -9.5416 C.3       1 <1>         0.0296 
      6 C6         -7.7088    7.4111  -11.0503 C.3       1 <1>         0.1059 
      7 C7         -7.7599    8.9624  -11.1406 C.3       1 <1>         0.0010 
      8 C8         -7.7830    9.4509   -9.6654 C.3       1 <1>         0.0002 
      9 C9         -6.9394    8.3504   -8.9561 C.3       1 <1>         0.0727 
     10 C10        -8.8140    9.6769  -12.0225 C.3       1 <1>        -0.0535 
     11 C11        -8.6234   11.2134  -11.8328 C.3       1 <1>        -0.0552 
     12 C12        -8.4897   11.6166  -10.3352 C.3       1 <1>         0.0483 
     13 C13        -7.2860   10.9178   -9.6475 C.3       1 <1>        -0.0453 
     14 O14        -9.0354    4.5770   -9.2342 O.3       1 <1>        -0.3924 
     15 C15        -6.2704    5.2844   -8.2747 C.3       1 <1>        -0.0492 
     16 C16        -5.9507    6.0384  -10.7090 C.2       1 <1>         0.2650 
     17 O17        -6.4231    6.9685  -11.5387 O.3       1 <1>        -0.2699 
     18 O18        -4.8471    5.5334  -10.8233 O.2       1 <1>        -0.3119 
     19 C19        -7.0087    8.4609   -7.4576 C.2       1 <1>         0.2432 
     20 O20        -7.5663    7.6220   -6.7690 O.2       1 <1>        -0.3698 
     21 O21        -6.4322    9.5536   -6.9520 O.3       1 <1>        -0.2269 
     22 C22        -6.8025    9.7973   -5.5882 C.3       1 <1>         0.2413 
     23 C23        -6.1555   11.1069   -5.2098 C.2       1 <1>        -0.0021 
     24 C24        -7.0732   12.0634   -5.0827 C.2       1 <1>         0.0291 
     25 C25        -8.3287   11.3663   -5.3366 C.2       1 <1>         0.2494 
     26 O26        -8.2211   10.0622   -5.5489 O.3       1 <1>        -0.2313 
     27 O27        -9.4084   11.9321   -5.3448 O.2       1 <1>        -0.3691 
     28 C28        -6.8635   13.5143   -4.7461 C.3       1 <1>        -0.0323 
     29 C29        -9.2309    9.5943   -9.0907 C.3       1 <1>        -0.0121 
     30 C30        -9.6129   10.9603   -9.5861 C.2       1 <1>        -0.0328 
     31 O31        -8.4641   13.0465  -10.2027 O.3       1 <1>        -0.4347 
     32 C32       -10.8060   11.5294   -9.3849 C.2       1 <1>        -0.0406 
     33 H1         -9.7939    6.7635  -11.1828 H         1 <1>         0.0297 
     34 H2         -8.9495    6.8433  -12.7542 H         1 <1>         0.0297 
     35 H3         -7.6660    4.8478  -12.3183 H         1 <1>         0.0289 
     36 H4         -9.3247    4.4366  -11.8575 H         1 <1>         0.0289 
     37 H5         -7.4300    3.6978  -10.2183 H         1 <1>         0.0584 
     38 H6         -8.6141    6.9727   -9.0533 H         1 <1>         0.0352 
     39 H7         -6.7889    9.2578  -11.5763 H         1 <1>         0.0340 
     40 H8         -5.8854    8.4109   -9.2720 H         1 <1>         0.0563 
     41 H9         -9.8338    9.3744  -11.7423 H         1 <1>         0.0260 
     42 H10        -8.6730    9.4104  -13.0833 H         1 <1>         0.0260 
     43 H11        -9.4807   11.7444  -12.2773 H         1 <1>         0.0168 
     44 H12        -7.7118   11.5481  -12.3537 H         1 <1>         0.0168 
     45 H13        -7.1732   11.2779   -8.6126 H         1 <1>         0.0176 
     46 H14        -6.3365   11.0912  -10.1765 H         1 <1>         0.0176 
     47 H15        -9.6759    3.9129   -9.4704 H         1 <1>         0.2096 
     48 H16        -5.7323    4.3347   -8.4148 H         1 <1>         0.0222 
     49 H17        -7.0446    5.1421   -7.5058 H         1 <1>         0.0222 
     50 H18        -5.5525    6.0415   -7.9258 H         1 <1>         0.0222 
     51 H19        -6.5187    8.9813   -4.9017 H         1 <1>         0.1196 
     52 H20        -5.0839   11.2497   -5.0771 H         1 <1>         0.0705 
     53 H21        -7.8318   14.0192   -4.6108 H         1 <1>         0.0347 
     54 H22        -6.3154   14.0064   -5.5633 H         1 <1>         0.0347 
     55 H23        -6.2820   13.6023   -3.8163 H         1 <1>         0.0347 
     56 H24        -9.2371    9.6357   -7.9915 H         1 <1>         0.0432 
     57 H25        -9.9486    8.8311   -9.4238 H         1 <1>         0.0432 
     58 H26        -8.4019   13.3278   -9.2961 H         1 <1>         0.1919 
     59 H27       -11.0117   12.5247   -9.7775 H         1 <1>         0.1257 
     60 H28       -11.5849   11.0104   -8.8281 H         1 <1>         0.1257 
@<TRIPOS>BOND
     1    2    1 1    
     2    2    3 1    
     3    3    4 1    
     4    4    5 1    
     5    5    6 1    
     6    1    6 1    
     7    6    7 1    
     8    7    8 1    
     9    8    9 1    
    10    5    9 1    
    11    7   10 1    
    12   10   11 1    
    13   11   12 1    
    14   12   13 1    
    15    8   13 1    
    16    3   14 1    
    17    4   15 1    
    18    4   16 1    
    19   16   17 1    
    20    6   17 1    
    21   16   18 2    
    22    9   19 1    
    23   19   20 2    
    24   19   21 1    
    25   21   22 1    
    26   22   23 1    
    27   23   24 2    
    28   24   25 1    
    29   25   26 1    
    30   22   26 1    
    31   25   27 2    
    32   24   28 1    
    33    8   29 1    
    34   29   30 1    
    35   12   30 1    
    36   12   31 1    
    37   30   32 2    
    38    1   33 1    
    39    1   34 1    
    40    2   35 1    
    41    2   36 1    
    42    3   37 1    
    43    5   38 1    
    44    7   39 1    
    45    9   40 1    
    46   10   41 1    
    47   10   42 1    
    48   11   43 1    
    49   11   44 1    
    50   13   45 1    
    51   13   46 1    
    52   14   47 1    
    53   15   48 1    
    54   15   49 1    
    55   15   50 1    
    56   22   51 1    
    57   23   52 1    
    58   28   53 1    
    59   28   54 1    
    60   28   55 1    
    61   29   56 1    
    62   29   57 1    
    63   31   58 1    
    64   32   59 1    
    65   32   60 1    
@<TRIPOS>SUBSTRUCTURE
     1 ****        2 TEMP              0 ****  ****    0 ROOT 
@<TRIPOS>NORMAL
@<TRIPOS>FF_PBC
FORCE_FIELD_SETUP_FEATURE Force Field Setup information
v1.0  0 0.000000 0.000000 0.000000 0.000000 0.000000 0.000000 NONE 0 0 0 0 1 0 0 0 0 0 0 0 0
