#	Name:			PISM01141
#	Creating user name:	baoopengkun
#	Creation time:		Tue Dec 18 14:15:36 2018

#	Modifying user name:	baoopengkun
#	Modification time:	Tue Dec 18 14:17:04 2018

@<TRIPOS>MOLECULE
PISM01141
   45    46     1     1     0
SMALL
GAST_HUCK


@<TRIPOS>ATOM
      1 O1         -3.8358    7.8443    0.1400 O.3       1 <1>        -0.2951 
      2 C2         -2.9232    8.6175    0.7339 C.2       1 <1>         0.2496 
      3 O3         -3.2752    9.7401    1.0525 O.2       1 <1>        -0.3623 
      4 C4         -1.5003    8.1878    1.0408 C.ar      1 <1>         0.0409 
      5 C5         -0.8432    7.1886    0.3150 C.ar      1 <1>        -0.0347 
      6 C6          0.4419    6.7774    0.6771 C.ar      1 <1>         0.1364 
      7 C7          1.1364    7.4484    1.6903 C.ar      1 <1>         0.1662 
      8 C8          0.5007    8.4667    2.4166 C.ar      1 <1>         0.0813 
      9 C9         -0.8133    8.8180    2.0840 C.ar      1 <1>        -0.0305 
     10 N10         1.1137    9.1190    3.4397 N.pl3     1 <1>        -0.3243 
     11 C11         2.5396    9.4457    3.4173 C.3       1 <1>         0.0219 
     12 C12         2.8361   10.7286    4.2395 C.3       1 <1>        -0.0341 
     13 C13         4.3408   11.1094    4.1791 C.3       1 <1>        -0.0542 
     14 C14         4.6309   12.3900    5.0045 C.3       1 <1>        -0.0652 
     15 O15         2.4534    7.0910    1.9827 O.3       1 <1>        -0.2576 
     16 C16         3.4142    7.2703    0.9803 C.ar      1 <1>         0.1145 
     17 C17         4.5740    6.4913    1.0077 C.ar      1 <1>        -0.0288 
     18 C18         5.5437    6.6254    0.0101 C.ar      1 <1>        -0.0698 
     19 C19         5.3596    7.5536   -1.0182 C.ar      1 <1>        -0.0724 
     20 C20         4.2109    8.3493   -1.0406 C.ar      1 <1>        -0.0698 
     21 C21         3.2427    8.2141   -0.0410 C.ar      1 <1>        -0.0288 
     22 S22         1.1687    5.4180   -0.2177 S.o2      1 <1>         0.0627 
     23 O23         2.0142    5.9539   -1.2641 O.2       1 <1>        -0.1522 
     24 O24         0.1121    4.4920   -0.5711 O.2       1 <1>        -0.1522 
     25 N25         2.1187    4.6725    0.8744 N.am      1 <1>        -0.2624 
     26 H1         -3.5565    6.9520   -0.0095 H         1 <1>         0.2521 
     27 H2         -1.3129    6.7223   -0.5428 H         1 <1>         0.0557 
     28 H3         -1.3111    9.6006    2.6476 H         1 <1>         0.0532 
     29 H4          0.5347    9.4857    4.2134 H         1 <1>         0.1725 
     30 H5          2.8736    9.6253    2.3835 H         1 <1>         0.0507 
     31 H6          3.1128    8.6062    3.8429 H         1 <1>         0.0507 
     32 H7          2.5434   10.5636    5.2895 H         1 <1>         0.0284 
     33 H8          2.2297   11.5568    3.8370 H         1 <1>         0.0284 
     34 H9          4.6381   11.2832    3.1312 H         1 <1>         0.0263 
     35 H10         4.9480   10.2787    4.5761 H         1 <1>         0.0263 
     36 H11         4.3619   12.2357    6.0611 H         1 <1>         0.0230 
     37 H12         4.0504   13.2396    4.6123 H         1 <1>         0.0230 
     38 H13         5.7017   12.6424    4.9492 H         1 <1>         0.0230 
     39 H14         4.7175    5.7771    1.8115 H         1 <1>         0.0551 
     40 H15         6.4378    6.0098    0.0338 H         1 <1>         0.0590 
     41 H16         6.1080    7.6567   -1.7981 H         1 <1>         0.0527 
     42 H17         4.0705    9.0740   -1.8371 H         1 <1>         0.0590 
     43 H18         2.3648    8.8501   -0.0721 H         1 <1>         0.0551 
     44 H19         2.8173    4.0331    0.5553 H         1 <1>         0.1633 
     45 H20         1.9804    4.8072    1.8553 H         1 <1>         0.1633 
@<TRIPOS>BOND
     1    2    1 1    
     2    2    3 2    
     3    2    4 1    
     4    4    5 ar   
     5    5    6 ar   
     6    6    7 ar   
     7    7    8 ar   
     8    8    9 ar   
     9    4    9 ar   
    10    8   10 1    
    11   10   11 1    
    12   11   12 1    
    13   12   13 1    
    14   13   14 1    
    15    7   15 1    
    16   15   16 1    
    17   16   17 ar   
    18   17   18 ar   
    19   18   19 ar   
    20   19   20 ar   
    21   20   21 ar   
    22   16   21 ar   
    23    6   22 1    
    24   22   23 2    
    25   22   24 2    
    26   22   25 1    
    27    1   26 1    
    28    5   27 1    
    29    9   28 1    
    30   10   29 1    
    31   11   30 1    
    32   11   31 1    
    33   12   32 1    
    34   12   33 1    
    35   13   34 1    
    36   13   35 1    
    37   14   36 1    
    38   14   37 1    
    39   14   38 1    
    40   17   39 1    
    41   18   40 1    
    42   19   41 1    
    43   20   42 1    
    44   21   43 1    
    45   25   44 1    
    46   25   45 1    
@<TRIPOS>SUBSTRUCTURE
     1 ****        2 TEMP              0 ****  ****    0 ROOT 
@<TRIPOS>NORMAL
@<TRIPOS>FF_PBC
FORCE_FIELD_SETUP_FEATURE Force Field Setup information
v1.0  0 0.000000 0.000000 0.000000 0.000000 0.000000 0.000000 NONE 0 0 0 0 1 0 0 0 0 0 0 0 0
