#	Name:			PISM00818.1
#	Creating user name:	baoopengkun
#	Creation time:		Fri Nov 30 17:28:07 2018

#	Modifying user name:	baoopengkun
#	Modification time:	Fri Nov 30 17:30:51 2018

@<TRIPOS>MOLECULE
PISM00818.1
   34    35     1     2     0
SMALL
GAST_HUCK


@<TRIPOS>ATOM
      1 C1          4.5250    9.9967    2.6845 C.ar      1 <1>        -0.0642 
      2 C2          5.1925   11.1748    3.0310 C.ar      1 <1>        -0.0692 
      3 C3          6.2460   11.6385    2.2387 C.ar      1 <1>        -0.0685 
      4 C4          6.6510   10.9026    1.1219 C.ar      1 <1>        -0.0555 
      5 C5          6.0068    9.7058    0.7960 C.ar      1 <1>         0.0369 
      6 C6          4.9055    9.2763    1.5473 C.ar      1 <1>        -0.0149 
      7 C7          4.1119    8.0421    1.1738 C.2       1 <1>         0.0840 
      8 C8          3.7679    7.0601    2.2233 C.2       1 <1>         0.2399 
      9 O9          4.6961    6.3790    2.9181 O.3       1 <1>        -0.2864 
     10 C10         6.0695    6.6109    2.5502 C.3       1 <1>         0.0638 
     11 O11         2.5913    6.8545    2.4681 O.2       1 <1>        -0.3769 
     12 C12         3.6946    7.8438   -0.0826 C.2       1 <1>         0.1068 
     13 O13         3.0182    6.7254   -0.3879 O.3       1 <1>        -0.2488 
     14 C14         2.5757    6.6469   -1.7557 C.3       1 <1>         0.2460 
     15 C15         1.4907    7.6641   -2.0324 C.2       1 <1>         0.0005 
     16 C16         0.3394    7.0561   -2.3126 C.2       1 <1>         0.0294 
     17 C17         0.6730    5.6400   -2.2316 C.2       1 <1>         0.2497 
     18 O18         1.9360    5.3670   -1.9306 O.3       1 <1>        -0.2292 
     19 C19        -0.9975    7.6641   -2.6382 C.3       1 <1>        -0.0323 
     20 O20        -0.1488    4.7630   -2.4344 O.2       1 <1>        -0.3691 
     21 Cl21        6.6139    8.7513   -0.5438 Cl        1 <1>        -0.0770 
     22 H1          3.7039    9.6449    3.3021 H         1 <1>         0.0554 
     23 H2          4.8914   11.7305    3.9140 H         1 <1>         0.0599 
     24 H3          6.7497   12.5666    2.4917 H         1 <1>         0.0557 
     25 H4          7.4719   11.2585    0.5077 H         1 <1>         0.0604 
     26 H5          6.6778    5.8994    3.1277 H         1 <1>         0.0574 
     27 H6          6.4038    7.6237    2.8184 H         1 <1>         0.0574 
     28 H7          6.2492    6.4214    1.4800 H         1 <1>         0.0574 
     29 H8          3.9208    8.6130   -0.8231 H         1 <1>         0.1339 
     30 H9          3.4089    6.7188   -2.4755 H         1 <1>         0.1227 
     31 H10         1.6234    8.7448   -2.0041 H         1 <1>         0.0707 
     32 H11        -0.9643    8.7614   -2.5619 H         1 <1>         0.0347 
     33 H12        -1.7527    7.2793   -1.9367 H         1 <1>         0.0347 
     34 H13        -1.2848    7.3838   -3.6624 H         1 <1>         0.0347 
@<TRIPOS>BOND
     1    2    1 ar   
     2    2    3 ar   
     3    3    4 ar   
     4    4    5 ar   
     5    5    6 ar   
     6    1    6 ar   
     7    6    7 1    
     8    7    8 1    
     9    8    9 1    
    10    9   10 1    
    11    8   11 2    
    12    7   12 2    
    13   12   13 1    
    14   13   14 1    
    15   14   15 1    
    16   15   16 2    
    17   16   17 1    
    18   17   18 1    
    19   14   18 1    
    20   16   19 1    
    21   17   20 2    
    22    5   21 1    
    23    1   22 1    
    24    2   23 1    
    25    3   24 1    
    26    4   25 1    
    27   10   26 1    
    28   10   27 1    
    29   10   28 1    
    30   12   29 1    
    31   14   30 1    
    32   15   31 1    
    33   19   32 1    
    34   19   33 1    
    35   19   34 1    
@<TRIPOS>SUBSTRUCTURE
     1 ****        2 TEMP              0 ****  ****    0 ROOT 
@<TRIPOS>NORMAL
@<TRIPOS>FF_PBC
FORCE_FIELD_SETUP_FEATURE Force Field Setup information
v1.0  0 0.000000 0.000000 0.000000 0.000000 0.000000 0.000000 NONE 0 0 0 0 1 0 0 0 0 0 0 0 0
@<TRIPOS>RENDERING_ATTRS
ANTIALIASED_LINES 
*
