#	Name:			PISM00579
#	Creating user name:	malab
#	Creation time:		Thu Apr 04 22:14:23 2019

#	Modifying user name:	malab
#	Modification time:	Thu Apr 04 22:15:37 2019

@<TRIPOS>MOLECULE
PISM00579
   27    28     1     1     0
SMALL
USER_CHARGES


@<TRIPOS>ATOM
      1 N1         22.7140   14.6210   -5.9471 N.2       1 <1>         0.0000 
      2 N2         22.8149   15.0781   -4.6872 N.2       1 <1>         0.0000 
      3 C3         23.1084   13.2285   -5.9824 C.2       1 <1>         0.0000 
      4 C4         23.4784   12.6537   -4.8267 C.2       1 <1>         0.0000 
      5 S5         23.4737   13.7285   -3.4061 S.3       1 <1>         0.0000 
      6 C6         23.0769   12.5467   -7.3265 C.3       1 <1>         0.0000 
      7 C7         23.8800   11.2455   -4.6425 C.2       1 <1>         0.0000 
      8 O8         24.8940   11.0495   -3.9912 O.2       1 <1>         0.0000 
      9 N9         23.1575   10.2766   -5.1419 N.pl3     1 <1>         0.0000 
     10 C10        23.5143    8.9757   -5.0030 C.ar      1 <1>         0.0000 
     11 C11        24.8143    8.5589   -5.3112 C.ar      1 <1>         0.0000 
     12 C12        22.5770    8.0354   -4.5579 C.ar      1 <1>         0.0000 
     13 C13        22.9292    6.6867   -4.4219 C.ar      1 <1>         0.0000 
     14 C14        24.2398    6.2868   -4.7074 C.ar      1 <1>         0.0000 
     15 C15        25.1807    7.2207   -5.1481 C.ar      1 <1>         0.0000 
     16 Cl16       20.9497    8.5557   -4.1589 Cl        1 <1>         0.0000 
     17 C17        21.8822    5.6627   -3.9619 C.3       1 <1>         0.0000 
     18 H1         23.4990   13.2267   -8.0812 H         1 <1>         0.0000 
     19 H2         22.0347   12.3216   -7.5976 H         1 <1>         0.0000 
     20 H3         23.6663   11.6184   -7.3429 H         1 <1>         0.0000 
     21 H4         22.2764   10.4996   -5.6301 H         1 <1>         0.0000 
     22 H5         25.5445    9.2687   -5.6866 H         1 <1>         0.0000 
     23 H6         24.5377    5.2500   -4.5900 H         1 <1>         0.0000 
     24 H7         26.1967    6.9060   -5.3668 H         1 <1>         0.0000 
     25 H8         21.0181    5.6897   -4.6426 H         1 <1>         0.0000 
     26 H9         21.5487    5.9164   -2.9443 H         1 <1>         0.0000 
     27 H10        22.2820    4.6377   -3.9532 H         1 <1>         0.0000 
@<TRIPOS>BOND
     1    2    1 2    
     2    1    3 1    
     3    3    4 2    
     4    4    5 1    
     5    2    5 1    
     6    3    6 1    
     7    4    7 1    
     8    7    8 2    
     9    7    9 1    
    10    9   10 1    
    11   10   11 ar   
    12   10   12 ar   
    13   12   13 ar   
    14   13   14 ar   
    15   14   15 ar   
    16   11   15 ar   
    17   12   16 1    
    18   13   17 1    
    19    6   18 1    
    20    6   19 1    
    21    6   20 1    
    22    9   21 1    
    23   11   22 1    
    24   14   23 1    
    25   15   24 1    
    26   17   25 1    
    27   17   26 1    
    28   17   27 1    
@<TRIPOS>SUBSTRUCTURE
     1 ****        2 TEMP              0 ****  ****    0 ROOT 
@<TRIPOS>NORMAL
@<TRIPOS>FF_PBC
FORCE_FIELD_SETUP_FEATURE Force Field Setup information
v1.0  0 0.000000 0.000000 0.000000 0.000000 0.000000 0.000000 NONE 0 0 0 0 0 0 0 0 0 0 0 0 0
