#	Name:			PISM00038
#	Creating user name:	baoopengkun
#	Creation time:		Thu Dec 27 17:46:31 2018

#	Modifying user name:	baoopengkun
#	Modification time:	Thu Dec 27 17:53:41 2018

@<TRIPOS>MOLECULE
PISM00038
  109   113     1     1     0
SMALL
GAST_HUCK


@<TRIPOS>ATOM
      1 C1         10.5310    7.8382    6.1463 C.3       1 <1>        -0.0405 
      2 C2          9.2723    8.3680    5.3913 C.3       1 <1>        -0.0146 
      3 C3          8.4732    7.1826    4.7669 C.3       1 <1>         0.0907 
      4 O4          9.3877    6.1254    4.4172 O.3       1 <1>        -0.3404 
      5 C5          9.9654    5.4334    5.5454 C.3       1 <1>         0.1937 
      6 C6         10.3549    6.4006    6.7134 C.3       1 <1>         0.0128 
      7 C7         11.2259    4.7115    4.9912 C.3       1 <1>         0.0982 
      8 O8         11.8159    3.8440    5.9794 O.3       1 <1>        -0.3897 
      9 O9          9.0897    4.3645    5.9448 O.3       1 <1>        -0.3626 
     10 C10         9.4035    6.3350    7.9434 C.3       1 <1>        -0.0574 
     11 C11         8.3915    9.2988    6.2758 C.3       1 <1>        -0.0600 
     12 C12         7.7339    7.5748    3.4618 C.3       1 <1>         0.0859 
     13 O13         6.7282    8.5761    3.6825 O.3       1 <1>        -0.3677 
     14 C14         5.8099    8.5454    2.5755 C.3       1 <1>         0.0906 
     15 C15         5.5508    7.0143    2.5641 C.3       1 <1>        -0.0124 
     16 C16         6.9479    6.3980    2.8204 C.3       1 <1>        -0.0191 
     17 H17         7.6898    6.8387    5.4563 H         1 <1>         0.0626 
     18 H18         8.4806    7.9576    2.7514 H         1 <1>         0.0622 
     19 C19         4.8019    6.4130    1.3490 C.3       1 <1>        -0.0599 
     20 C20         6.4179    9.2338    1.3036 C.3       1 <1>         0.0961 
     21 O21         7.3493    8.3702    0.6094 O.3       1 <1>        -0.3648 
     22 C22         7.4992    8.8286   -0.7474 C.3       1 <1>         0.0883 
     23 C23         6.0228    9.0722   -1.1328 C.3       1 <1>        -0.0212 
     24 C24         5.3607    9.5305    0.1949 C.3       1 <1>        -0.0189 
     25 H25         4.8920    9.0876    2.8545 H         1 <1>         0.0627 
     26 C26         7.1383   10.5579    1.7430 C.3       1 <1>        -0.0241 
     27 C27         6.3132   11.4812    2.6861 C.3       1 <1>        -0.0626 
     28 C28         8.2829    7.8787   -1.7059 C.3       1 <1>         0.0961 
     29 O29         9.6841    7.8622   -1.3620 O.3       1 <1>        -0.3398 
     30 C30        10.1432    6.5113   -1.1614 C.3       1 <1>         0.1736 
     31 C31         9.1326    5.6460   -1.9472 C.3       1 <1>         0.0042 
     32 C32         7.8219    6.3988   -1.6517 C.3       1 <1>        -0.0166 
     33 H33         8.0597    9.7749   -0.7617 H         1 <1>         0.0625 
     34 C34         8.2290    8.4272   -3.1609 C.3       1 <1>        -0.0333 
     35 O35        11.4607    6.3817   -1.7127 O.3       1 <1>        -0.3446 
     36 C36        10.1593    6.1649    0.3562 C.3       1 <1>         0.0278 
     37 C37        11.5759    6.3592    0.9620 C.3       1 <1>         0.0650 
     38 C38        12.2267    7.6105    0.3203 C.3       1 <1>         0.0091 
     39 C39        12.3856    7.3795   -1.2223 C.3       1 <1>         0.0719 
     40 O40        11.5264    6.4304    2.3973 O.3       1 <1>        -0.3913 
     41 C41        13.4970    8.1167    1.0599 C.3       1 <1>        -0.0577 
     42 H42        12.1352    8.3448   -1.6939 H         1 <1>         0.0604 
     43 C43        13.7758    6.9223   -1.7822 C.3       1 <1>         0.0117 
     44 C44        13.7761    7.1111   -3.3484 C.3       1 <1>         0.0837 
     45 C45        14.3206    5.9330   -4.2177 C.3       1 <1>         0.0835 
     46 C46        13.6845    4.5713   -4.0015 C.2       1 <1>         0.2366 
     47 O47        14.3855    3.5883   -3.8318 O.2       1 <1>        -0.3702 
     48 O48        12.3562    4.4158   -3.9941 O.3       1 <1>        -0.2924 
     49 C49        14.2022    6.2556   -5.7356 C.3       1 <1>        -0.0416 
     50 O50        14.5921    8.2447   -3.7376 O.3       1 <1>        -0.3767 
     51 C51        14.0803    9.5437   -3.3720 C.3       1 <1>         0.0370 
     52 C52        14.1594    5.4941   -1.2854 C.3       1 <1>        -0.0575 
     53 H1         10.8387    8.5348    6.9425 H         1 <1>         0.0273 
     54 H2         11.3680    7.7864    5.4282 H         1 <1>         0.0273 
     55 H3          9.6431    9.0106    4.5725 H         1 <1>         0.0324 
     56 H4         11.3351    6.0935    7.1210 H         1 <1>         0.0351 
     57 H5         11.9851    5.4473    4.6892 H         1 <1>         0.0611 
     58 H6         10.9416    4.1295    4.0984 H         1 <1>         0.0611 
     59 H7         11.1867    3.2000    6.2924 H         1 <1>         0.2096 
     60 H8          8.2101    4.6498    6.1533 H         1 <1>         0.2128 
     61 H9          8.3559    6.5315    7.6895 H         1 <1>         0.0234 
     62 H10         9.7158    7.0689    8.7028 H         1 <1>         0.0234 
     63 H11         9.4536    5.3335    8.3997 H         1 <1>         0.0234 
     64 H12         7.9806    8.7717    7.1459 H         1 <1>         0.0233 
     65 H13         7.5510    9.7098    5.6988 H         1 <1>         0.0233 
     66 H14         8.9883   10.1484    6.6431 H         1 <1>         0.0233 
     67 H15         4.9365    6.8018    3.4595 H         1 <1>         0.0325 
     68 H16         7.4154    6.0738    1.8803 H         1 <1>         0.0294 
     69 H19         6.8775    5.5171    3.4795 H         1 <1>         0.0294 
     70 H20         5.3455    6.6057    0.4174 H         1 <1>         0.0233 
     71 H21         3.7894    6.8372    1.2719 H         1 <1>         0.0233 
     72 H22         4.7117    5.3230    1.4754 H         1 <1>         0.0233 
     73 H23         5.5742    8.1254   -1.4714 H         1 <1>         0.0292 
     74 H24         5.9165    9.8158   -1.9397 H         1 <1>         0.0292 
     75 H26         4.4132    8.9968    0.3572 H         1 <1>         0.0295 
     76 H27         5.1161   10.6023    0.1391 H         1 <1>         0.0295 
     77 H28         7.4006   11.1750    0.8711 H         1 <1>         0.0291 
     78 H29         8.0799   10.3041    2.2541 H         1 <1>         0.0291 
     79 H30         5.3278   11.7165    2.2584 H         1 <1>         0.0231 
     80 H31         6.8532   12.4293    2.8411 H         1 <1>         0.0231 
     81 H32         6.1642   11.0274    3.6767 H         1 <1>         0.0231 
     82 H34         9.1133    4.5872   -1.6452 H         1 <1>         0.0318 
     83 H35         9.3720    5.6890   -3.0203 H         1 <1>         0.0318 
     84 H36         7.4916    6.1348   -0.6375 H         1 <1>         0.0295 
     85 H37         7.0161    6.1524   -2.3604 H         1 <1>         0.0295 
     86 H38         7.2085    8.3738   -3.5676 H         1 <1>         0.0258 
     87 H39         8.8927    7.8595   -3.8281 H         1 <1>         0.0258 
     88 H40         8.5598    9.4767   -3.1804 H         1 <1>         0.0258 
     89 H41         9.8370    5.1327    0.5636 H         1 <1>         0.0342 
     90 H43         9.4574    6.8445    0.8526 H         1 <1>         0.0342 
     91 H44        12.1857    5.4750    0.7281 H         1 <1>         0.0598 
     92 H45        11.4822    8.4146    0.4723 H         1 <1>         0.0348 
     93 H46        10.9899    7.1445    2.7268 H         1 <1>         0.2098 
     94 H47        13.2464    8.4036    2.0934 H         1 <1>         0.0234 
     95 H48        13.8989    9.0062    0.5504 H         1 <1>         0.0234 
     96 H49        14.2831    7.3540    1.1148 H         1 <1>         0.0234 
     97 H50        14.5716    7.5747   -1.3914 H         1 <1>         0.0350 
     98 H51        12.7573    7.2972   -3.7228 H         1 <1>         0.0628 
     99 H52        15.3977    5.8439   -3.9981 H         1 <1>         0.0577 
    100 H53        11.8496    5.2097   -4.0919 H         1 <1>         0.2540 
    101 H54        13.1486    6.3766   -6.0298 H         1 <1>         0.0259 
    102 H55        14.6353    5.4363   -6.3315 H         1 <1>         0.0259 
    103 H56        14.7419    7.1810   -5.9899 H         1 <1>         0.0259 
    104 H57        13.0780    9.7178   -3.7930 H         1 <1>         0.0524 
    105 H58        14.0572    9.7111   -2.2858 H         1 <1>         0.0524 
    106 H59        14.7641   10.2874   -3.8067 H         1 <1>         0.0524 
    107 H60        14.3337    5.4729   -0.2032 H         1 <1>         0.0234 
    108 H61        15.0998    5.1519   -1.7402 H         1 <1>         0.0234 
    109 H62        13.3668    4.7631   -1.4973 H         1 <1>         0.0234 
@<TRIPOS>BOND
     1    2    1 1    
     2    2    3 1    
     3    3    4 1    
     4    4    5 1    
     5    6    5 1    
     6    1    6 1    
     7    5    7 1    
     8    7    8 1    
     9    5    9 1    
    10    6   10 1    
    11    2   11 1    
    12    3   12 1    
    13   12   13 1    
    14   13   14 1    
    15   15   14 1    
    16   16   15 1    
    17   12   16 1    
    18    3   17 1    
    19   12   18 1    
    20   15   19 1    
    21   14   20 1    
    22   20   21 1    
    23   21   22 1    
    24   23   22 1    
    25   24   23 1    
    26   20   24 1    
    27   14   25 1    
    28   20   26 1    
    29   26   27 1    
    30   22   28 1    
    31   28   29 1    
    32   29   30 1    
    33   31   30 1    
    34   32   31 1    
    35   28   32 1    
    36   22   33 1    
    37   28   34 1    
    38   30   35 1    
    39   30   36 1    
    40   36   37 1    
    41   37   38 1    
    42   39   38 1    
    43   35   39 1    
    44   37   40 1    
    45   38   41 1    
    46   39   42 1    
    47   39   43 1    
    48   43   44 1    
    49   44   45 1    
    50   45   46 1    
    51   46   47 2    
    52   46   48 1    
    53   45   49 1    
    54   44   50 1    
    55   50   51 1    
    56   43   52 1    
    57    1   53 1    
    58    1   54 1    
    59    2   55 1    
    60    6   56 1    
    61    7   57 1    
    62    7   58 1    
    63    8   59 1    
    64    9   60 1    
    65   10   61 1    
    66   10   62 1    
    67   10   63 1    
    68   11   64 1    
    69   11   65 1    
    70   11   66 1    
    71   15   67 1    
    72   16   68 1    
    73   16   69 1    
    74   19   70 1    
    75   19   71 1    
    76   19   72 1    
    77   23   73 1    
    78   23   74 1    
    79   24   75 1    
    80   24   76 1    
    81   26   77 1    
    82   26   78 1    
    83   27   79 1    
    84   27   80 1    
    85   27   81 1    
    86   31   82 1    
    87   31   83 1    
    88   32   84 1    
    89   32   85 1    
    90   34   86 1    
    91   34   87 1    
    92   34   88 1    
    93   36   89 1    
    94   36   90 1    
    95   37   91 1    
    96   38   92 1    
    97   40   93 1    
    98   41   94 1    
    99   41   95 1    
   100   41   96 1    
   101   43   97 1    
   102   44   98 1    
   103   45   99 1    
   104   48  100 1    
   105   49  101 1    
   106   49  102 1    
   107   49  103 1    
   108   51  104 1    
   109   51  105 1    
   110   51  106 1    
   111   52  107 1    
   112   52  108 1    
   113   52  109 1    
@<TRIPOS>SUBSTRUCTURE
     1 ****        2 TEMP              0 ****  ****    0 ROOT 
@<TRIPOS>NORMAL
@<TRIPOS>FF_PBC
FORCE_FIELD_SETUP_FEATURE Force Field Setup information
v1.0  0 0.000000 0.000000 0.000000 0.000000 0.000000 0.000000 NONE 0 0 0 0 1 0 0 0 0 0 0 0 0
