#	Name:			PISM00006
#	Creating user name:	baoopengkun
#	Creation time:		Sat Nov 17 15:58:04 2018

#	Modifying user name:	baoopengkun
#	Modification time:	Sat Nov 17 16:08:24 2018

@<TRIPOS>MOLECULE
PISM00006
   40    41     1     2     0
SMALL
GAST_HUCK


@<TRIPOS>ATOM
      1 C1         -9.1619    2.5510   -4.0759 C.ar      1 <1>         0.0459 
      2 C2         -9.6711    2.6928   -5.3714 C.ar      1 <1>        -0.0240 
      3 C3         -9.9721    1.5533   -6.1251 C.ar      1 <1>         0.0321 
      4 N4         -9.7707    0.3248   -5.6054 N.ar      1 <1>        -0.2601 
      5 C5         -9.2764    0.1617   -4.3623 C.ar      1 <1>         0.1525 
      6 C6         -8.9658    1.2652   -3.5650 C.ar      1 <1>         0.0049 
      7 C7         -8.8137    3.7586   -3.2002 C.3       1 <1>         0.3835 
      8 F8         -7.5056    3.6810   -2.8370 F         1 <1>        -0.2116 
      9 F9         -9.5855    3.7301   -2.0809 F         1 <1>        -0.2116 
     10 F10        -9.0236    4.9332   -3.8535 F         1 <1>        -0.2116 
     11 C11       -10.5313    1.6860   -7.5415 C.3       1 <1>        -0.0146 
     12 N12        -9.0829   -1.1585   -3.8878 N.am      1 <1>        -0.2091 
     13 N13        -8.3736   -1.4543   -2.2888 N.3       1 <1>        -0.1485 
     14 C14        -7.4222   -2.4989   -2.3679 C.ar      1 <1>         0.1431 
     15 C15        -7.8450   -3.8142   -2.6089 C.ar      1 <1>         0.1609 
     16 N16        -9.1687   -4.1155   -2.6516 N.pl3     1 <1>         0.0345 
     17 O17       -10.1278   -3.2033   -2.1698 O.3       1 <1>        -0.2408 
     18 O18        -9.5407   -5.1816   -3.0966 O.2       1 <1>        -0.1281 
     19 C19        -6.0591   -2.2061   -2.2231 C.ar      1 <1>         0.1609 
     20 C20        -5.1161   -3.2224   -2.4207 C.ar      1 <1>        -0.0296 
     21 C21        -5.5220   -4.5220   -2.7385 C.ar      1 <1>         0.0018 
     22 C22        -6.8865   -4.8153   -2.8065 C.ar      1 <1>        -0.0296 
     23 C23        -4.4953   -5.6288   -3.0078 C.3       1 <1>         0.3488 
     24 F24        -3.2823   -5.1067   -3.3333 F         1 <1>        -0.2402 
     25 F25        -4.3688   -6.3888   -1.8883 F         1 <1>        -0.2402 
     26 F26        -4.9213   -6.4130   -4.0341 F         1 <1>        -0.2402 
     27 N27        -5.6501   -0.9526   -1.8970 N.pl3     1 <1>         0.0345 
     28 O28        -4.4959   -0.6198   -2.0678 O.2       1 <1>        -0.1281 
     29 O29        -6.5504   -0.0134   -1.3670 O.3       1 <1>        -0.2408 
     30 H1         -9.8353    3.6769   -5.7969 H         1 <1>         0.0711 
     31 H2         -8.5795    1.1268   -2.5624 H         1 <1>         0.0756 
     32 H3        -10.6937    0.6886   -7.9770 H         1 <1>         0.0420 
     33 H4         -9.8194    2.2412   -8.1703 H         1 <1>         0.0420 
     34 H5        -11.4904    2.2242   -7.5113 H         1 <1>         0.0420 
     35 H6         -9.3482   -1.9228   -4.4784 H         1 <1>         0.2207 
     36 H7         -9.1513   -1.7023   -1.5764 H         1 <1>         0.1899 
     37 H8        -11.0122   -3.5568   -2.2088 H         1 <1>         0.2519 
     38 H9         -4.0573   -3.0067   -2.3233 H         1 <1>         0.0591 
     39 H10        -7.1943   -5.8355   -3.0119 H         1 <1>         0.0591 
     40 H11        -6.1270    0.5573   -0.7334 H         1 <1>         0.2519 
@<TRIPOS>BOND
     1    2    1 ar   
     2    2    3 ar   
     3    3    4 ar   
     4    4    5 ar   
     5    5    6 ar   
     6    1    6 ar   
     7    1    7 1    
     8    7    8 1    
     9    7    9 1    
    10    7   10 1    
    11    3   11 1    
    12    5   12 1    
    13   12   13 1    
    14   13   14 1    
    15   14   15 ar   
    16   15   16 1    
    17   16   17 1    
    18   16   18 2    
    19   14   19 ar   
    20   19   20 ar   
    21   20   21 ar   
    22   21   22 ar   
    23   15   22 ar   
    24   21   23 1    
    25   23   24 1    
    26   23   25 1    
    27   23   26 1    
    28   19   27 1    
    29   27   28 2    
    30   27   29 1    
    31    2   30 1    
    32    6   31 1    
    33   11   32 1    
    34   11   33 1    
    35   11   34 1    
    36   12   35 1    
    37   13   36 1    
    38   17   37 1    
    39   20   38 1    
    40   22   39 1    
    41   29   40 1    
@<TRIPOS>SUBSTRUCTURE
     1 ****        2 TEMP              0 ****  ****    0 ROOT 
@<TRIPOS>NORMAL
@<TRIPOS>FF_PBC
FORCE_FIELD_SETUP_FEATURE Force Field Setup information
v1.0  0 0.000000 0.000000 0.000000 0.000000 0.000000 0.000000 NONE 0 0 0 0 1 0 0 0 0 0 0 0 0
@<TRIPOS>RENDERING_ATTRS
ANTIALIASED_LINES 
*
