#	Name:			PISM00113
#	Creating user name:	baoopengkun
#	Creation time:		Mon Dec 17 14:05:23 2018

#	Modifying user name:	baoopengkun
#	Modification time:	Mon Dec 17 14:07:06 2018

@<TRIPOS>MOLECULE
PISM00113
   27    28     1     1     0
SMALL
GAST_HUCK


@<TRIPOS>ATOM
      1 C1          5.8476    8.6528   12.3027 C.ar      1 <1>         0.0090 
      2 N2          5.8354    7.9494   11.1523 N.ar      1 <1>        -0.2575 
      3 C3          6.5624    8.3612   10.0943 C.ar      1 <1>         0.2146 
      4 N4          7.3108    9.4806   10.1498 N.ar      1 <1>        -0.2575 
      5 C5          7.3517   10.2193   11.2767 C.ar      1 <1>         0.0090 
      6 C6          6.6141    9.8178   12.3935 C.ar      1 <1>        -0.0272 
      7 N7          6.5282    7.5930    8.9065 N.am      1 <1>        -0.1501 
      8 S8          7.3998    8.0080    7.5896 S.o2      1 <1>         0.0904 
      9 O9          6.5786    8.8660    6.7590 O.2       1 <1>        -0.1450 
     10 O10         8.7120    8.4543    8.0131 O.2       1 <1>        -0.1450 
     11 C11         7.5883    6.4282    6.7962 C.ar      1 <1>         0.1020 
     12 C12         8.2293    5.3913    7.4785 C.ar      1 <1>        -0.0465 
     13 C13         8.3745    4.1374    6.8776 C.ar      1 <1>        -0.0429 
     14 C14         7.8873    3.9089    5.5847 C.ar      1 <1>         0.0353 
     15 C15         7.2540    4.9552    4.9024 C.ar      1 <1>        -0.0429 
     16 C16         7.1055    6.2089    5.5033 C.ar      1 <1>        -0.0465 
     17 N17         8.0270    2.6923    5.0018 N.pl3     1 <1>        -0.3369 
     18 H1          5.2626    8.3093   13.1494 H         1 <1>         0.0887 
     19 H2          7.9567   11.1193   11.3076 H         1 <1>         0.0887 
     20 H3          6.6359   10.3976   13.3106 H         1 <1>         0.0630 
     21 H4          5.9055    6.8146    8.8684 H         1 <1>         0.2300 
     22 H5          8.6144    5.5643    8.4784 H         1 <1>         0.0602 
     23 H6          8.8699    3.3418    7.4247 H         1 <1>         0.0515 
     24 H7          6.8720    4.8010    3.8984 H         1 <1>         0.0515 
     25 H8          6.6148    7.0123    4.9641 H         1 <1>         0.0602 
     26 H9          7.6694    2.5215    4.0499 H         1 <1>         0.1719 
     27 H10         8.4943    1.9207    5.5011 H         1 <1>         0.1719 
@<TRIPOS>BOND
     1    2    1 ar   
     2    2    3 ar   
     3    3    4 ar   
     4    4    5 ar   
     5    5    6 ar   
     6    1    6 ar   
     7    3    7 1    
     8    7    8 1    
     9    8    9 2    
    10    8   10 2    
    11    8   11 1    
    12   11   12 ar   
    13   12   13 ar   
    14   13   14 ar   
    15   14   15 ar   
    16   15   16 ar   
    17   11   16 ar   
    18   14   17 1    
    19    1   18 1    
    20    5   19 1    
    21    6   20 1    
    22    7   21 1    
    23   12   22 1    
    24   13   23 1    
    25   15   24 1    
    26   16   25 1    
    27   17   26 1    
    28   17   27 1    
@<TRIPOS>SUBSTRUCTURE
     1 ****        2 TEMP              0 ****  ****    0 ROOT 
@<TRIPOS>NORMAL
@<TRIPOS>FF_PBC
FORCE_FIELD_SETUP_FEATURE Force Field Setup information
v1.0  0 0.000000 0.000000 0.000000 0.000000 0.000000 0.000000 NONE 0 0 0 0 1 0 0 0 0 0 0 0 0
