#	Name:			PISM00450
#	Creating user name:	malab
#	Creation time:		Sun Apr 07 22:47:01 2019

#	Modifying user name:	malab
#	Modification time:	Sun Apr 07 22:48:02 2019

@<TRIPOS>MOLECULE
PISM00450
   55    58     1     1     0
SMALL
GAST_HUCK


@<TRIPOS>ATOM
      1 O1         31.1989    8.3699  -10.1782 O.2       1 <1>        -0.4145 
      2 C2         31.4108    9.2202   -9.3295 C.2       1 <1>         0.0905 
      3 C3         32.2781   10.3961   -9.6710 C.3       1 <1>         0.0189 
      4 C4         33.0456   10.8595   -8.4034 C.3       1 <1>        -0.0060 
      5 C5         32.0126   11.1291   -7.2700 C.3       1 <1>         0.0189 
      6 C6         31.0749    9.9635   -7.0147 C.2       1 <1>         0.0643 
      7 C7         30.8151    9.0799   -7.9886 C.2       1 <1>         0.0191 
      8 N8         30.5324    9.8687   -5.8229 N.pl3     1 <1>        -0.2575 
      9 C9         29.7143    8.9020   -5.4795 C.2       1 <1>         0.0619 
     10 C10        29.3648    7.9331   -6.3375 C.2       1 <1>         0.0411 
     11 C11        29.8920    7.9212   -7.7393 C.3       1 <1>         0.0236 
     12 C12        28.6475    7.9890   -8.6366 C.ar      1 <1>        -0.0423 
     13 C13        28.0367    9.2192   -8.9081 C.ar      1 <1>        -0.0621 
     14 C14        26.8932    9.2776   -9.7099 C.ar      1 <1>        -0.0361 
     15 C15        26.3468    8.1042  -10.2346 C.ar      1 <1>         0.1235 
     16 C16        26.9528    6.8742   -9.9698 C.ar      1 <1>        -0.0361 
     17 C17        28.1028    6.8181   -9.1772 C.ar      1 <1>        -0.0621 
     18 F18        25.2491    8.1590  -10.9845 F         1 <1>        -0.1902 
     19 C19        28.4435    6.8409   -5.9817 C.2       1 <1>         0.1857 
     20 O20        28.9282    5.7369   -5.8015 O.2       1 <1>        -0.4015 
     21 N21        27.1639    7.0776   -5.8951 N.pl3     1 <1>        -0.2487 
     22 C22        26.2918    6.0919   -5.5770 C.ar      1 <1>         0.0933 
     23 C23        25.1963    5.8483   -6.4116 C.ar      1 <1>        -0.0417 
     24 C24        24.3137    4.8014   -6.1299 C.ar      1 <1>        -0.0763 
     25 C25        24.5259    3.9911   -5.0107 C.ar      1 <1>        -0.0759 
     26 C26        25.6056    4.2483   -4.1612 C.ar      1 <1>        -0.0385 
     27 C27        26.4672    5.3165   -4.4239 C.ar      1 <1>         0.1525 
     28 F28        27.4425    5.5958   -3.5586 F         1 <1>        -0.1915 
     29 H29        23.8530    3.1650   -4.8009 H         1 <1>         0.0504 
     30 C30        29.1854    8.9411   -4.0582 C.3       1 <1>        -0.0003 
     31 C31        33.8320   12.1646   -8.7249 C.3       1 <1>        -0.0554 
     32 C32        34.0528    9.7579   -7.9527 C.3       1 <1>        -0.0554 
     33 H1         31.6243   11.1913  -10.0606 H         1 <1>         0.0475 
     34 H2         32.9907   10.1153  -10.4626 H         1 <1>         0.0475 
     35 H3         31.3819   11.9957   -7.5217 H         1 <1>         0.0508 
     36 H4         32.5836   11.3769   -6.3613 H         1 <1>         0.0508 
     37 H5         30.7601   10.5900   -5.1184 H         1 <1>         0.2222 
     38 H6         30.4604    6.9917   -7.9042 H         1 <1>         0.0522 
     39 H7         28.4431   10.1370   -8.4961 H         1 <1>         0.0540 
     40 H8         26.4250   10.2321   -9.9275 H         1 <1>         0.0583 
     41 H9         26.5259    5.9655  -10.3813 H         1 <1>         0.0583 
     42 H10        28.5679    5.8575   -8.9801 H         1 <1>         0.0540 
     43 H11        26.8031    8.0186   -6.1098 H         1 <1>         0.2068 
     44 H12        25.0346    6.4718   -7.2854 H         1 <1>         0.0516 
     45 H13        23.4650    4.6163   -6.7814 H         1 <1>         0.0552 
     46 H14        25.7784    3.6227   -3.2915 H         1 <1>         0.0571 
     47 H15        30.0299    8.9572   -3.3532 H         1 <1>         0.0464 
     48 H16        28.5490    8.0856   -3.7903 H         1 <1>         0.0464 
     49 H17        28.5930    9.8584   -3.9227 H         1 <1>         0.0464 
     50 H18        34.3779   12.5175   -7.8364 H         1 <1>         0.0238 
     51 H19        33.1492   12.9648   -9.0499 H         1 <1>         0.0238 
     52 H20        34.5607   11.9865   -9.5309 H         1 <1>         0.0238 
     53 H21        34.6151   10.0872   -7.0652 H         1 <1>         0.0238 
     54 H22        34.7764    9.5464   -8.7548 H         1 <1>         0.0238 
     55 H23        33.5408    8.8176   -7.6994 H         1 <1>         0.0238 
@<TRIPOS>BOND
     1    2    1 2    
     2    2    3 1    
     3    3    4 1    
     4    4    5 1    
     5    5    6 1    
     6    6    7 2    
     7    2    7 1    
     8    6    8 1    
     9    8    9 1    
    10    9   10 2    
    11   10   11 1    
    12    7   11 1    
    13   11   12 1    
    14   12   13 ar   
    15   13   14 ar   
    16   14   15 ar   
    17   15   16 ar   
    18   16   17 ar   
    19   12   17 ar   
    20   15   18 1    
    21   10   19 1    
    22   19   20 2    
    23   19   21 1    
    24   21   22 1    
    25   22   23 ar   
    26   23   24 ar   
    27   24   25 ar   
    28   25   26 ar   
    29   26   27 ar   
    30   22   27 ar   
    31   27   28 1    
    32   25   29 1    
    33    9   30 1    
    34    4   31 1    
    35    4   32 1    
    36    3   33 1    
    37    3   34 1    
    38    5   35 1    
    39    5   36 1    
    40    8   37 1    
    41   11   38 1    
    42   13   39 1    
    43   14   40 1    
    44   16   41 1    
    45   17   42 1    
    46   21   43 1    
    47   23   44 1    
    48   24   45 1    
    49   26   46 1    
    50   30   47 1    
    51   30   48 1    
    52   30   49 1    
    53   31   50 1    
    54   31   51 1    
    55   31   52 1    
    56   32   53 1    
    57   32   54 1    
    58   32   55 1    
@<TRIPOS>SUBSTRUCTURE
     1 ****        2 TEMP              0 ****  ****    0 ROOT 
@<TRIPOS>NORMAL
@<TRIPOS>FF_PBC
FORCE_FIELD_SETUP_FEATURE Force Field Setup information
v1.0  0 0.000000 0.000000 0.000000 0.000000 0.000000 0.000000 NONE 0 0 0 0 1 0 0 0 0 0 0 0 0
