#	Name:			PISM00907
#	Creating user name:	baoopengkun
#	Creation time:		Fri Dec 14 10:31:16 2018

#	Modifying user name:	baoopengkun
#	Modification time:	Fri Dec 14 10:36:23 2018

@<TRIPOS>MOLECULE
PISM00907
   29    31     1     1     0
SMALL
GAST_HUCK


@<TRIPOS>ATOM
      1 C1         19.6592   12.5071   -8.3646 C.ar      1 <1>        -0.0499 
      2 C2         18.6158   13.1350   -7.6716 C.ar      1 <1>        -0.0634 
      3 C3         18.2727   14.4723   -7.9278 C.ar      1 <1>        -0.0341 
      4 C4         18.9625   15.2282   -8.8868 C.ar      1 <1>         0.0616 
      5 C5         19.9981   14.5864   -9.5659 C.ar      1 <1>         0.0898 
      6 C6         20.3400   13.2659   -9.3156 C.ar      1 <1>         0.0621 
      7 C7         21.4901   12.9637  -10.2444 C.2       1 <1>         0.2411 
      8 N8         21.7811   14.0575  -10.9764 N.am      1 <1>        -0.1425 
      9 C9         20.9449   15.0575  -10.6398 C.2       1 <1>         0.2359 
     10 O10        22.0554   11.8852  -10.3005 O.2       1 <1>        -0.3671 
     11 O11        20.9313   16.1820  -11.1108 O.2       1 <1>        -0.3747 
     12 C12        22.8052   14.1317  -12.0030 C.3       1 <1>         0.2212 
     13 O13        22.3621   13.3784  -13.1493 O.3       1 <1>        -0.2348 
     14 C14        23.2419   12.3929  -13.2810 C.2       1 <1>         0.2491 
     15 C15        24.3260   12.3843  -12.3048 C.2       1 <1>         0.0288 
     16 C16        24.0649   13.4409  -11.5376 C.2       1 <1>        -0.0059 
     17 C17        25.4620   11.4060  -12.1858 C.3       1 <1>        -0.0323 
     18 O18        23.1489   11.5607  -14.1670 O.2       1 <1>        -0.3691 
     19 N19        18.6519   16.5196   -9.1536 N.pl3     1 <1>        -0.3317 
     20 H20        17.8858   16.9927   -8.6514 H         1 <1>         0.1746 
     21 H21        19.1836   17.0434   -9.8693 H         1 <1>         0.1746 
     22 H1         19.9324   11.4741   -8.1753 H         1 <1>         0.0575 
     23 H2         18.0632   12.5752   -6.9227 H         1 <1>         0.0629 
     24 H3         17.4582   14.9250   -7.3714 H         1 <1>         0.0564 
     25 H4         23.0204   15.1720  -12.2996 H         1 <1>         0.1152 
     26 H5         24.6668   13.7593  -10.6876 H         1 <1>         0.0702 
     27 H6         25.2284   10.4849  -12.7405 H         1 <1>         0.0347 
     28 H7         25.6311   11.1512  -11.1288 H         1 <1>         0.0347 
     29 H8         26.3770   11.8531  -12.6016 H         1 <1>         0.0347 
@<TRIPOS>BOND
     1    2    1 ar   
     2    2    3 ar   
     3    3    4 ar   
     4    4    5 ar   
     5    5    6 ar   
     6    1    6 ar   
     7    6    7 1    
     8    7    8 am   
     9    8    9 am   
    10    5    9 1    
    11    7   10 2    
    12    9   11 2    
    13    8   12 1    
    14   12   13 1    
    15   13   14 1    
    16   14   15 1    
    17   15   16 2    
    18   12   16 1    
    19   15   17 1    
    20   14   18 2    
    21    4   19 1    
    22   19   20 1    
    23   19   21 1    
    24    1   22 1    
    25    2   23 1    
    26    3   24 1    
    27   12   25 1    
    28   16   26 1    
    29   17   27 1    
    30   17   28 1    
    31   17   29 1    
@<TRIPOS>SUBSTRUCTURE
     1 ****        2 TEMP              0 ****  ****    0 ROOT 
@<TRIPOS>NORMAL
@<TRIPOS>FF_PBC
FORCE_FIELD_SETUP_FEATURE Force Field Setup information
v1.0  0 0.000000 0.000000 0.000000 0.000000 0.000000 0.000000 NONE 0 0 0 0 1 0 0 0 0 0 0 0 0
