#	Name:			PISM01039.1
#	Creating user name:	malab
#	Creation time:		Thu Jul 04 18:17:05 2019

#	Modifying user name:	malab
#	Modification time:	Thu Jul 04 18:26:10 2019

@<TRIPOS>MOLECULE
PISM01039.1
   46    47     1     1     0
SMALL
GAST_HUCK


@<TRIPOS>ATOM
      1 N1          3.2873    9.8463   29.2278 N.2       1 CN         -0.1741 
      2 C2          4.2918   10.0644   29.9771 C.2       1 CN          0.0646 
      3 N3          4.4854   11.4601   29.7087 N.2       1 CN         -0.2835 
      4 C4          3.6549   11.9380   28.8873 C.2       1 CN          0.1476 
      5 N5          2.8678   10.9511   28.5511 N.pl3     1 CN         -0.1263 
      6 C6          1.8730   11.0278   27.6989 C.2       1 CN          0.1307 
      7 C7          1.1362    9.7229   27.4236 C.3       1 CN          0.1302 
      8 C8          1.7262    8.9140   26.2181 C.3       1 CN          0.0037 
      9 C9          3.1922    8.4837   26.5266 C.3       1 CN         -0.0553 
     10 C10         0.8712    7.6306   25.9933 C.3       1 CN         -0.0553 
     11 C11         1.7324    9.7527   24.9044 C.3       1 CN         -0.0553 
     12 O12        -0.2972    9.8765   27.3542 O.3       1 CN         -0.3724 
     13 C13         1.5077   12.1650   27.0806 C.2       1 CN         -0.0422 
     14 H14         0.7111   12.1895   26.3409 H         1 CN          0.0294 
     15 H1          4.8418    9.3883   30.6301 H         1 CN          0.0876 
     16 H2          4.3642   12.6900   29.2334 H         1 CN          0.1382 
     17 H3          1.2148    9.0925   28.3230 H         1 CN          0.0837 
     18 H4          3.2375    7.8747   27.4423 H         1 CN          0.0238 
     19 H5          3.8420    9.3620   26.6578 H         1 CN          0.0238 
     20 H6          3.6031    7.8832   25.7006 H         1 CN          0.0238 
     21 H7          1.2890    7.0192   25.1787 H         1 CN          0.0238 
     22 H8         -0.1642    7.8890   25.7249 H         1 CN          0.0238 
     23 H9          0.8480    7.0153   26.9059 H         1 CN          0.0238 
     24 H10         2.3743   10.6404   25.0041 H         1 CN          0.0238 
     25 H11         0.7202   10.0818   24.6298 H         1 CN          0.0238 
     26 H12         2.1250    9.1511   24.0703 H         1 CN          0.0238 
     27 H13        -0.6219   10.3359   26.5897 H         1 CN          0.2140 
     28 C28         2.1389   13.5178   27.3195 C.ar      1 CN         -0.0613 
     29 C29         1.9769   14.1662   28.5469 C.ar      1 CN         -0.0766 
     30 C30         2.6018   15.3950   28.7775 C.ar      1 CN         -0.0503 
     31 C31         3.3641   16.0042   27.7737 C.ar      1 CN          0.0344 
     32 C32         3.4877   15.3675   26.5329 C.ar      1 CN         -0.0503 
     33 C33         2.8840   14.1271   26.3071 C.ar      1 CN         -0.0766 
     34 N34         3.9753   17.1961   28.0000 N.pl3     1 CN         -0.3178 
     35 C35         3.2744   18.2630   28.7148 C.3       1 CN          0.0143 
     36 C36         5.3421   17.4266   27.5318 C.3       1 CN          0.0143 
     37 H15         1.3675   13.7124   29.3223 H         1 CN          0.0522 
     38 H16         2.4943   15.8680   29.7474 H         1 CN          0.0504 
     39 H17         4.0495   15.8354   25.7318 H         1 CN          0.0504 
     40 H18         2.9944   13.6355   25.3457 H         1 CN          0.0522 
     41 H19         2.1820   18.1717   28.6071 H         1 CN          0.0476 
     42 H20         3.5689   19.2465   28.3172 H         1 CN          0.0476 
     43 H21         3.5361   18.2223   29.7830 H         1 CN          0.0476 
     44 H22         5.9020   16.4828   27.4361 H         1 CN          0.0476 
     45 H23         5.8859   18.0676   28.2428 H         1 CN          0.0476 
     46 H24         5.3149   17.9301   26.5536 H         1 CN          0.0476 
@<TRIPOS>BOND
     1    1    2 2    
     2    2    3 1    
     3    4    3 2    
     4    5    4 1    
     5    5    1 1    
     6    6    5 1    
     7    6    7 1    
     8    7    8 1    
     9    8    9 1    
    10    8   10 1    
    11    8   11 1    
    12    7   12 1    
    13   13    6 2    
    14   14   13 1    
    15    2   15 1    
    16    4   16 1    
    17    7   17 1    
    18    9   18 1    
    19    9   19 1    
    20    9   20 1    
    21   10   21 1    
    22   10   22 1    
    23   10   23 1    
    24   11   24 1    
    25   11   25 1    
    26   11   26 1    
    27   12   27 1    
    28   13   28 1    
    29   28   29 ar   
    30   29   30 ar   
    31   30   31 ar   
    32   31   32 ar   
    33   32   33 ar   
    34   28   33 ar   
    35   31   34 1    
    36   34   35 1    
    37   34   36 1    
    38   29   37 1    
    39   30   38 1    
    40   32   39 1    
    41   33   40 1    
    42   35   41 1    
    43   35   42 1    
    44   35   43 1    
    45   36   44 1    
    46   36   45 1    
    47   36   46 1    
@<TRIPOS>SUBSTRUCTURE
     1 CN         14 PERM              0 ****  ****    0 ROOT 
@<TRIPOS>NORMAL
@<TRIPOS>FF_PBC
FORCE_FIELD_SETUP_FEATURE Force Field Setup information
v1.0  0 0.000000 0.000000 0.000000 0.000000 0.000000 0.000000 NONE 0 0 0 0 1 0 0 0 0 0 0 0 0
