#	Name:			PISM00782.1
#	Creating user name:	baoopengkun
#	Creation time:		Fri Nov 30 22:24:57 2018

#	Modifying user name:	baoopengkun
#	Modification time:	Fri Nov 30 22:25:56 2018

@<TRIPOS>MOLECULE
PISM00782.1
   33    34     1     2     0
SMALL
GAST_HUCK


@<TRIPOS>ATOM
      1 C1        -16.8343   18.6731   -6.9121 C.2       1 <1>         0.0800 
      2 C2        -15.5131   18.7646   -7.6284 C.3       1 <1>         0.0179 
      3 C3        -15.0518   17.3593   -8.1081 C.3       1 <1>        -0.0033 
      4 C4        -16.2038   16.7203   -8.9363 C.3       1 <1>         0.0306 
      5 C5        -17.4972   16.6817   -8.1612 C.2       1 <1>         0.1031 
      6 C6        -17.7918   17.5945   -7.2209 C.2       1 <1>        -0.0086 
      7 O7        -17.1157   19.5027   -6.0619 O.2       1 <1>        -0.4166 
      8 C8        -13.7829   17.4982   -8.9995 C.3       1 <1>        -0.0551 
      9 C9        -14.7116   16.4593   -6.8815 C.3       1 <1>        -0.0551 
     10 O10       -18.3055   15.6610   -8.5196 O.3       1 <1>        -0.2481 
     11 C11       -19.4824   15.4055   -7.7292 C.3       1 <1>         0.2446 
     12 O12       -20.1718   14.3044   -8.3610 O.3       1 <1>        -0.2297 
     13 C13       -20.1785   13.3205   -7.4692 C.2       1 <1>         0.2496 
     14 C14       -19.5389   13.6285   -6.1965 C.2       1 <1>         0.0293 
     15 C15       -19.1249   14.8845   -6.3523 C.2       1 <1>        -0.0002 
     16 C16       -19.3887   12.7452   -4.9881 C.3       1 <1>        -0.0323 
     17 O17       -20.6882   12.2380   -7.7070 O.2       1 <1>        -0.3691 
     18 H1        -14.7540   19.1930   -6.9543 H         1 <1>         0.0476 
     19 H2        -15.6424   19.4494   -8.4811 H         1 <1>         0.0476 
     20 H3        -15.9122   15.6994   -9.2304 H         1 <1>         0.0546 
     21 H4        -16.3881   17.2981   -9.8552 H         1 <1>         0.0546 
     22 H5        -18.7097   17.6289   -6.6383 H         1 <1>         0.0187 
     23 H6        -12.9614   17.9609   -8.4316 H         1 <1>         0.0239 
     24 H7        -13.9881   18.1248   -9.8808 H         1 <1>         0.0239 
     25 H8        -13.4479   16.5102   -9.3507 H         1 <1>         0.0239 
     26 H9        -15.5780   16.3325   -6.2156 H         1 <1>         0.0239 
     27 H10       -13.8937   16.9046   -6.2944 H         1 <1>         0.0239 
     28 H11       -14.3890   15.4608   -7.2143 H         1 <1>         0.0239 
     29 H12       -20.1933   16.2460   -7.7115 H         1 <1>         0.1219 
     30 H13       -18.5984   15.4369   -5.5756 H         1 <1>         0.0707 
     31 H14       -20.0138   11.8456   -5.0880 H         1 <1>         0.0347 
     32 H15       -19.6943   13.2910   -4.0828 H         1 <1>         0.0347 
     33 H16       -18.3371   12.4395   -4.8861 H         1 <1>         0.0347 
@<TRIPOS>BOND
     1    2    1 1    
     2    2    3 1    
     3    3    4 1    
     4    4    5 1    
     5    5    6 2    
     6    1    6 1    
     7    1    7 2    
     8    3    8 1    
     9    3    9 1    
    10    5   10 1    
    11   10   11 1    
    12   11   12 1    
    13   12   13 1    
    14   13   14 1    
    15   14   15 2    
    16   11   15 1    
    17   14   16 1    
    18   13   17 2    
    19    2   18 1    
    20    2   19 1    
    21    4   20 1    
    22    4   21 1    
    23    6   22 1    
    24    8   23 1    
    25    8   24 1    
    26    8   25 1    
    27    9   26 1    
    28    9   27 1    
    29    9   28 1    
    30   11   29 1    
    31   15   30 1    
    32   16   31 1    
    33   16   32 1    
    34   16   33 1    
@<TRIPOS>SUBSTRUCTURE
     1 ****        2 TEMP              0 ****  ****    0 ROOT 
@<TRIPOS>NORMAL
@<TRIPOS>FF_PBC
FORCE_FIELD_SETUP_FEATURE Force Field Setup information
v1.0  0 0.000000 0.000000 0.000000 0.000000 0.000000 0.000000 NONE 0 0 0 0 0 0 0 0 0 0 0 0 0
@<TRIPOS>RENDERING_ATTRS
ANTIALIASED_LINES 
*
