#	Name:			PISM00833.3
#	Creating user name:	baoopengkun
#	Creation time:		Wed Feb 27 15:28:24 2019

#	Modifying user name:	baoopengkun
#	Modification time:	Wed Feb 27 15:29:01 2019

@<TRIPOS>MOLECULE
PISM00833.3
   33    34     1     2     0
SMALL
GAST_HUCK


@<TRIPOS>ATOM
      1 C1        -13.2332    4.2967   17.6946 C.ar      1 <1>        -0.0644 
      2 C2        -13.0836    4.9190   18.9376 C.ar      1 <1>        -0.0689 
      3 C3        -14.0782    4.7871   19.9103 C.ar      1 <1>        -0.0687 
      4 C4        -15.2303    4.0498   19.6271 C.ar      1 <1>        -0.0689 
      5 C5        -15.3860    3.4461   18.3754 C.ar      1 <1>        -0.0644 
      6 C6        -14.3761    3.5405   17.4096 C.ar      1 <1>        -0.0383 
      7 C7        -14.5038    2.8419   16.0693 C.2       1 <1>        -0.0129 
      8 C8        -14.0227    3.5572   14.8256 C.3       1 <1>         0.0146 
      9 N9        -12.5882    3.2708   14.6139 N.3       1 <1>        -0.3240 
     10 C10       -15.0253    1.6093   15.9941 C.2       1 <1>         0.0663 
     11 O11       -15.1222    0.9985   14.8026 O.3       1 <1>        -0.2779 
     12 C12       -15.6796   -0.3279   14.8539 C.3       1 <1>         0.2369 
     13 C13       -14.7718   -1.2801   15.6007 C.2       1 <1>        -0.0012 
     14 C14       -14.2971   -2.2163   14.7822 C.2       1 <1>         0.0292 
     15 C15       -14.9009   -1.8835   13.4977 C.2       1 <1>         0.2495 
     16 O16       -15.7082   -0.8297   13.5025 O.3       1 <1>        -0.2307 
     17 O17       -14.6879   -2.5307   12.4874 O.2       1 <1>        -0.3691 
     18 C18       -13.3531   -3.3428   15.1033 C.3       1 <1>        -0.0323 
     19 H1        -12.4474    4.4018   16.9541 H         1 <1>         0.0560 
     20 H2        -12.1934    5.5035   19.1487 H         1 <1>         0.0599 
     21 H3        -13.9563    5.2569   20.8815 H         1 <1>         0.0559 
     22 H4        -16.0066    3.9483   20.3795 H         1 <1>         0.0599 
     23 H5        -16.3060    2.9124   18.1626 H         1 <1>         0.0560 
     24 H6        -14.1756    4.6409   14.9554 H         1 <1>         0.0514 
     25 H7        -14.6048    3.2496   13.9402 H         1 <1>         0.0514 
     26 H8        -12.2205    3.7853   13.7353 H         1 <1>         0.1199 
     27 H9        -12.4274    2.2064   14.5008 H         1 <1>         0.1199 
     28 H10       -15.3493    1.1272   16.9177 H         1 <1>         0.0991 
     29 H11       -16.7066   -0.3325   15.2568 H         1 <1>         0.1208 
     30 H12       -14.5279   -1.2195   16.6604 H         1 <1>         0.0706 
     31 H13       -12.6281   -3.0286   15.8692 H         1 <1>         0.0347 
     32 H14       -12.8052   -3.6448   14.1982 H         1 <1>         0.0347 
     33 H15       -13.9256   -4.2031   15.4805 H         1 <1>         0.0347 
@<TRIPOS>BOND
     1    2    1 ar   
     2    2    3 ar   
     3    3    4 ar   
     4    4    5 ar   
     5    5    6 ar   
     6    1    6 ar   
     7    6    7 1    
     8    7    8 1    
     9    8    9 1    
    10    7   10 2    
    11   10   11 1    
    12   11   12 1    
    13   12   13 1    
    14   13   14 2    
    15   14   15 1    
    16   15   16 1    
    17   12   16 1    
    18   15   17 2    
    19   14   18 1    
    20    1   19 1    
    21    2   20 1    
    22    3   21 1    
    23    4   22 1    
    24    5   23 1    
    25    8   24 1    
    26    8   25 1    
    27    9   26 1    
    28    9   27 1    
    29   10   28 1    
    30   12   29 1    
    31   13   30 1    
    32   18   31 1    
    33   18   32 1    
    34   18   33 1    
@<TRIPOS>SUBSTRUCTURE
     1 ****        2 TEMP              0 ****  ****    0 ROOT 
@<TRIPOS>NORMAL
@<TRIPOS>FF_PBC
FORCE_FIELD_SETUP_FEATURE Force Field Setup information
v1.0  0 0.000000 0.000000 0.000000 0.000000 0.000000 0.000000 NONE 0 0 0 0 1 0 0 0 0 0 0 0 0
@<TRIPOS>RENDERING_ATTRS
ANTIALIASED_LINES 
*
