#	Name:			PISM00832
#	Creating user name:	baoopengkun
#	Creation time:		Fri Nov 30 18:44:13 2018

#	Modifying user name:	baoopengkun
#	Modification time:	Fri Nov 30 18:45:18 2018

@<TRIPOS>MOLECULE
PISM00832
   33    34     1     2     0
SMALL
GAST_HUCK


@<TRIPOS>ATOM
      1 C1        -15.7671   -2.2707    9.9409 C.ar      1 <1>        -0.0630 
      2 C2        -15.9759   -3.1793   10.9817 C.ar      1 <1>        -0.0634 
      3 C3        -16.6258   -2.7632   12.1465 C.ar      1 <1>        -0.0630 
      4 C4        -17.1035   -1.4537   12.2504 C.ar      1 <1>        -0.0547 
      5 C5        -16.9307   -0.5492   11.1963 C.ar      1 <1>         0.0057 
      6 C6        -16.2151   -0.9523   10.0626 C.ar      1 <1>        -0.0547 
      7 C7        -17.5282    0.8418   11.3008 C.2       1 <1>         0.1724 
      8 N8        -18.2335    1.3718   10.3753 N.2       1 <1>        -0.1061 
      9 C9        -17.3147    1.6325   12.5282 C.2       1 <1>         0.2768 
     10 O10       -16.5788    1.1977   13.4012 O.2       1 <1>        -0.3591 
     11 O11       -17.9313    2.8173   12.6671 O.3       1 <1>        -0.2809 
     12 C12       -17.6369    3.4928   13.9063 C.3       1 <1>         0.0645 
     13 O13       -18.3598    0.4705    9.3014 O.3       1 <1>        -0.1680 
     14 C14       -19.6036   -0.2400    9.2580 C.3       1 <1>         0.2638 
     15 C15       -19.7705   -1.0718   10.5077 C.2       1 <1>         0.0024 
     16 C16       -19.6532   -2.3671   10.2225 C.2       1 <1>         0.0295 
     17 C17       -19.4603   -2.3820    8.7777 C.2       1 <1>         0.2498 
     18 O18       -19.4958   -1.1955    8.1842 O.3       1 <1>        -0.2273 
     19 C19       -19.7045   -3.5466   11.1541 C.3       1 <1>        -0.0323 
     20 O20       -19.2941   -3.4138    8.1507 O.2       1 <1>        -0.3691 
     21 H1        -15.2547   -2.5888    9.0379 H         1 <1>         0.0613 
     22 H2        -15.6323   -4.2049   10.8863 H         1 <1>         0.0603 
     23 H3        -16.7622   -3.4585   12.9693 H         1 <1>         0.0613 
     24 H4        -17.6186   -1.1468   13.1551 H         1 <1>         0.0608 
     25 H5        -15.9991   -0.2426    9.2702 H         1 <1>         0.0608 
     26 H6        -18.1892    4.4440   13.9117 H         1 <1>         0.0575 
     27 H7        -16.5614    3.7153   13.9954 H         1 <1>         0.0575 
     28 H8        -17.9621    2.8973   14.7746 H         1 <1>         0.0575 
     29 H9        -20.4457    0.4503    9.0927 H         1 <1>         0.1248 
     30 H10       -19.9469   -0.6655   11.5028 H         1 <1>         0.0708 
     31 H11       -19.6027   -3.2258   12.2017 H         1 <1>         0.0347 
     32 H12       -18.8863   -4.2409   10.9114 H         1 <1>         0.0347 
     33 H13       -20.6649   -4.0679   11.0290 H         1 <1>         0.0347 
@<TRIPOS>BOND
     1    2    1 ar   
     2    2    3 ar   
     3    3    4 ar   
     4    4    5 ar   
     5    5    6 ar   
     6    1    6 ar   
     7    5    7 1    
     8    7    8 2    
     9    7    9 1    
    10    9   10 2    
    11    9   11 1    
    12   11   12 1    
    13    8   13 1    
    14   13   14 1    
    15   14   15 1    
    16   15   16 2    
    17   16   17 1    
    18   17   18 1    
    19   14   18 1    
    20   16   19 1    
    21   17   20 2    
    22    1   21 1    
    23    2   22 1    
    24    3   23 1    
    25    4   24 1    
    26    6   25 1    
    27   12   26 1    
    28   12   27 1    
    29   12   28 1    
    30   14   29 1    
    31   15   30 1    
    32   19   31 1    
    33   19   32 1    
    34   19   33 1    
@<TRIPOS>SUBSTRUCTURE
     1 ****        2 TEMP              0 ****  ****    0 ROOT 
@<TRIPOS>NORMAL
@<TRIPOS>FF_PBC
FORCE_FIELD_SETUP_FEATURE Force Field Setup information
v1.0  0 0.000000 0.000000 0.000000 0.000000 0.000000 0.000000 NONE 0 0 0 0 1 0 0 0 0 0 0 0 0
@<TRIPOS>RENDERING_ATTRS
ANTIALIASED_LINES 
*
