#	Name:			PISM00254
#	Creating user name:	14062
#	Creation time:		Mon Apr 01 22:05:42 2019

#	Modifying user name:	14062
#	Modification time:	Mon Apr 01 22:13:16 2019

@<TRIPOS>MOLECULE
PISM00254
   52    54     1     1     0
SMALL
GAST_HUCK


@<TRIPOS>ATOM
      1 C1          1.5935    0.7843    3.7849 C.3       1 BENZYL      0.0452 
      2 C1          2.8521    1.4536    3.2888 C.2       1 BENZYL      0.1269 
      3 C2          2.9094    2.1992    1.9681 C.ar      1 BENZYL      0.0271 
      4 C3          2.0011    1.8917    0.9464 C.ar      1 BENZYL     -0.0559 
      5 C4          2.1032    2.4914   -0.3111 C.ar      1 BENZYL     -0.0611 
      6 C5          3.1219    3.4111   -0.5698 C.ar      1 BENZYL     -0.0477 
      7 C6          3.9908    3.7682    0.4658 C.ar      1 BENZYL     -0.0532 
      8 C7          3.8663    3.2014    1.7408 C.ar      1 BENZYL     -0.0332 
      9 C9          1.7570    0.1883    5.2097 C.3       1 BENZYL      0.0911 
     10 C10         2.7368   -0.9573    5.3014 C.2       1 BENZYL     -0.0207 
     11 C11         3.0777   -1.6603    6.5884 C.ar      1 BENZYL     -0.0187 
     12 C12         3.9895   -2.6149    6.1812 C.ar      1 BENZYL      0.0631 
     13 N13         4.1827   -2.5205    4.8471 N.pl3     1 BENZYL     -0.2741 
     14 C14         3.4568   -1.5530    4.3349 C.2       1 BENZYL      0.0225 
     15 C15         2.6776   -1.5187    7.9159 C.ar      1 BENZYL     -0.0745 
     16 C16         3.2493   -2.3985    8.8433 C.ar      1 BENZYL     -0.0792 
     17 C17         4.1787   -3.3701    8.4395 C.ar      1 BENZYL     -0.0767 
     18 C18         4.5658   -3.4953    7.0984 C.ar      1 BENZYL     -0.0441 
     19 C19         0.4017   -0.2950    5.6848 C.2       1 BENZYL      0.2417 
     20 O20         0.0704   -1.4609    5.5559 O.2       1 BENZYL     -0.3685 
     21 O21        -0.4606    0.5656    6.2382 O.3       1 BENZYL     -0.2916 
     22 O22         3.8464    1.3831    3.9916 O.2       1 BENZYL     -0.3857 
     23 C23         4.7811    3.7075    2.8685 C.3       1 BENZYL     -0.0288 
     24 C24         3.2682    4.0086   -1.9748 C.3       1 BENZYL     -0.0303 
     25 C25         5.0834   -3.4018    4.1013 C.3       1 BENZYL      0.0484 
     26 C26         5.1384   -3.1736    2.5667 C.3       1 BENZYL     -0.0297 
     27 C27         6.0982   -4.1801    1.8784 C.3       1 BENZYL     -0.0629 
     28 H1          1.2850   -0.0296    3.1124 H         1 BENZYL      0.0525 
     29 H2          0.8013    1.5491    3.7932 H         1 BENZYL      0.0525 
     30 H3          1.2029    1.1773    1.1049 H         1 BENZYL      0.0637 
     31 H4          1.3900    2.2384   -1.0895 H         1 BENZYL      0.0515 
     32 H5          4.7698    4.4982    0.2733 H         1 BENZYL      0.0507 
     33 H6          2.1351    0.9668    5.8909 H         1 BENZYL      0.0659 
     34 H7          3.4201   -1.2543    3.2895 H         1 BENZYL      0.0806 
     35 H8          1.9578   -0.7628    8.2101 H         1 BENZYL      0.0540 
     36 H9          2.9679   -2.3268    9.8891 H         1 BENZYL      0.0510 
     37 H10         4.6064   -4.0383    9.1803 H         1 BENZYL      0.0530 
     38 H11         5.2840   -4.2467    6.7917 H         1 BENZYL      0.0542 
     39 H12        -0.1541    1.4608    6.3083 H         1 BENZYL      0.2540 
     40 H13         5.5736    2.9682    3.0577 H         1 BENZYL      0.0404 
     41 H14         4.1974    3.8666    3.7882 H         1 BENZYL      0.0404 
     42 H15         5.2577    4.6655    2.6118 H         1 BENZYL      0.0404 
     43 H16         3.1592    3.2167   -2.7315 H         1 BENZYL      0.0400 
     44 H17         4.2488    4.4876   -2.1150 H         1 BENZYL      0.0400 
     45 H18         2.4798    4.7605   -2.1267 H         1 BENZYL      0.0400 
     46 H19         4.7615   -4.4401    4.2835 H         1 BENZYL      0.0595 
     47 H20         6.0980   -3.2744    4.5120 H         1 BENZYL      0.0595 
     48 H21         5.4908   -2.1497    2.3579 H         1 BENZYL      0.0288 
     49 H22         4.1302   -3.2986    2.1381 H         1 BENZYL      0.0288 
     50 H23         7.1184   -4.0776    2.2805 H         1 BENZYL      0.0231 
     51 H24         6.1297   -3.9922    0.7933 H         1 BENZYL      0.0231 
     52 H25         5.7558   -5.2139    2.0436 H         1 BENZYL      0.0231 
@<TRIPOS>BOND
     1    2    3 1    
     2    3    4 ar   
     3    3    8 ar   
     4    8    7 ar   
     5    7    6 ar   
     6    6    5 ar   
     7    5    4 ar   
     8    2    1 1    
     9    1    9 1    
    10    9   10 1    
    11   10   11 1    
    12   11   12 ar   
    13   12   13 1    
    14   13   14 1    
    15   10   14 2    
    16   11   15 ar   
    17   15   16 ar   
    18   16   17 ar   
    19   17   18 ar   
    20   12   18 ar   
    21    9   19 1    
    22   19   20 2    
    23   19   21 1    
    24    2   22 2    
    25    8   23 1    
    26    6   24 1    
    27   13   25 1    
    28   25   26 1    
    29   26   27 1    
    30    1   28 1    
    31    1   29 1    
    32    4   30 1    
    33    5   31 1    
    34    7   32 1    
    35    9   33 1    
    36   14   34 1    
    37   15   35 1    
    38   16   36 1    
    39   17   37 1    
    40   18   38 1    
    41   21   39 1    
    42   23   40 1    
    43   23   41 1    
    44   23   42 1    
    45   24   43 1    
    46   24   44 1    
    47   24   45 1    
    48   25   46 1    
    49   25   47 1    
    50   26   48 1    
    51   26   49 1    
    52   27   50 1    
    53   27   51 1    
    54   27   52 1    
@<TRIPOS>SUBSTRUCTURE
     1 BENZYL      2 PERM              0 ****  ****    0 ROOT 
@<TRIPOS>NORMAL
@<TRIPOS>FF_PBC
FORCE_FIELD_SETUP_FEATURE Force Field Setup information
v1.0  0 0.000000 0.000000 0.000000 0.000000 0.000000 0.000000 NONE 0 0 0 0 1 0 0 0 0 0 0 0 0
