#	Name:			PISM00020
#	Creating user name:	baoopengkun
#	Creation time:		Sat Nov 17 16:36:26 2018

#	Modifying user name:	baoopengkun
#	Modification time:	Sat Nov 17 16:39:55 2018

@<TRIPOS>MOLECULE
PISM00020
   35    36     1     2     0
SMALL
GAST_HUCK


@<TRIPOS>ATOM
      1 C1         -2.4439   -0.5281    0.7848 C.3       1 <1>        -0.0330 
      2 C2         -1.5009   -0.3316    1.9784 C.ar      1 <1>        -0.0165 
      3 C3         -0.1443   -0.6615    1.8781 C.ar      1 <1>        -0.0691 
      4 C4          0.7052   -0.4970    2.9761 C.ar      1 <1>        -0.0797 
      5 C5          0.2023   -0.0044    4.1833 C.ar      1 <1>        -0.0776 
      6 C6         -1.1504    0.3310    4.2860 C.ar      1 <1>        -0.0394 
      7 C7         -1.9952    0.1824    3.1826 C.ar      1 <1>         0.0957 
      8 O8         -3.3370    0.5496    3.2831 O.3       1 <1>        -0.3006 
      9 C9         -3.5596    1.9661    3.1402 C.3       1 <1>         0.1666 
     10 C10        -5.0403    2.2145    3.2294 C.2       1 <1>         0.2565 
     11 N11        -5.8417    1.1466    3.4232 N.am      1 <1>        -0.1575 
     12 N12        -7.2773    1.3062    3.5142 N.2       1 <1>        -0.1720 
     13 C13        -8.0651    0.3270    3.7158 C.2       1 <1>         0.0439 
     14 C14        -9.5573    0.5659    3.7970 C.ar      1 <1>        -0.0007 
     15 C15       -10.0825    1.8530    3.6433 C.ar      1 <1>        -0.0325 
     16 C16       -11.4644    2.0468    3.7242 C.ar      1 <1>         0.0047 
     17 N17       -12.2878    1.0024    3.9488 N.ar      1 <1>        -0.3050 
     18 C18       -11.8108   -0.2500    4.1002 C.ar      1 <1>         0.0047 
     19 C19       -10.4368   -0.4968    4.0274 C.ar      1 <1>        -0.0325 
     20 O20        -5.4594    3.3553    3.1242 O.2       1 <1>        -0.3754 
     21 H1         -2.0474   -1.2757    0.0815 H         1 <1>         0.0368 
     22 H2         -2.5585    0.4309    0.2586 H         1 <1>         0.0368 
     23 H3         -3.4321   -0.8698    1.1281 H         1 <1>         0.0368 
     24 H4          0.2575   -1.0465    0.9462 H         1 <1>         0.0526 
     25 H5          1.7572   -0.7527    2.8915 H         1 <1>         0.0505 
     26 H6          0.8604    0.1171    5.0385 H         1 <1>         0.0531 
     27 H7         -1.5481    0.7071    5.2228 H         1 <1>         0.0521 
     28 H8         -3.2055    2.3260    2.1618 H         1 <1>         0.0864 
     29 H9         -3.0603    2.5346    3.9397 H         1 <1>         0.0864 
     30 H10        -5.3992    0.2489    3.4985 H         1 <1>         0.2587 
     31 H11        -7.6782   -0.6852    3.8312 H         1 <1>         0.0730 
     32 H12        -9.4273    2.6991    3.4622 H         1 <1>         0.0679 
     33 H13       -11.8857    3.0397    3.6068 H         1 <1>         0.0804 
     34 H14       -12.5050   -1.0643    4.2795 H         1 <1>         0.0804 
     35 H15       -10.0619   -1.5076    4.1495 H         1 <1>         0.0679 
@<TRIPOS>BOND
     1    2    1 1    
     2    2    3 ar   
     3    3    4 ar   
     4    4    5 ar   
     5    5    6 ar   
     6    6    7 ar   
     7    2    7 ar   
     8    7    8 1    
     9    8    9 1    
    10    9   10 1    
    11   10   11 am   
    12   11   12 1    
    13   12   13 2    
    14   13   14 1    
    15   14   15 ar   
    16   15   16 ar   
    17   16   17 ar   
    18   17   18 ar   
    19   18   19 ar   
    20   14   19 ar   
    21   10   20 2    
    22    1   21 1    
    23    1   22 1    
    24    1   23 1    
    25    3   24 1    
    26    4   25 1    
    27    5   26 1    
    28    6   27 1    
    29    9   28 1    
    30    9   29 1    
    31   11   30 1    
    32   13   31 1    
    33   15   32 1    
    34   16   33 1    
    35   18   34 1    
    36   19   35 1    
@<TRIPOS>SUBSTRUCTURE
     1 ****        2 TEMP              0 ****  ****    0 ROOT 
@<TRIPOS>NORMAL
@<TRIPOS>FF_PBC
FORCE_FIELD_SETUP_FEATURE Force Field Setup information
v1.0  0 0.000000 0.000000 0.000000 0.000000 0.000000 0.000000 NONE 0 0 0 0 1 0 0 0 0 0 0 0 0
@<TRIPOS>RENDERING_ATTRS
ANTIALIASED_LINES 
*
