#	Name:			PISM00494
#	Creating user name:	14062
#	Creation time:		Sun Oct 20 20:00:10 2019

#	Modifying user name:	14062
#	Modification time:	Sun Oct 20 20:01:10 2019

@<TRIPOS>MOLECULE
PISM00494
   38    39     1     1     0
SMALL
GAST_HUCK


@<TRIPOS>ATOM
      1 CL          5.7927   -0.6787   -0.3069 Cl        1 <1>        -0.0745 
      2 O          -1.6044   -0.9864    2.0120 O.3       1 <1>        -0.3727 
      3 N          -2.2801    1.0803    0.1849 N.ar      1 <1>        -0.0808 
      4 N          -3.0764    1.2150    1.2477 N.ar      1 <1>         0.0273 
      5 N          -4.0976    2.0451   -0.4992 N.ar      1 <1>        -0.0567 
      6 C          -1.0813   -2.0384   -0.2001 C.3       1 <1>         0.0033 
      7 C          -0.8093   -0.8792    0.8169 C.3       1 <1>         0.1281 
      8 C          -0.9344   -3.4033    0.5377 C.3       1 <1>        -0.0552 
      9 C          -0.0336   -1.9783   -1.3520 C.3       1 <1>        -0.0552 
     10 C          -2.5058   -1.9624   -0.8272 C.3       1 <1>        -0.0552 
     11 C          -0.9621    0.5124    0.2303 C.2       1 <1>         0.1450 
     12 C           0.0488    1.2556   -0.2441 C.2       1 <1>        -0.0259 
     13 C           1.4983    0.8238   -0.2441 C.ar      1 <1>        -0.0378 
     14 C          -2.8988    1.5917   -0.8991 C.ar      1 <1>         0.2691 
     15 C           2.1846    0.6112    0.9561 C.ar      1 <1>        -0.0613 
     16 C           2.1622    0.6481   -1.4621 C.ar      1 <1>        -0.0613 
     17 C          -4.2052    1.8162    0.8203 C.ar      1 <1>         0.2983 
     18 C           3.5016    0.1431    0.9370 C.ar      1 <1>        -0.0525 
     19 C           3.4826    0.1899   -1.4819 C.ar      1 <1>        -0.0525 
     20 C           4.1485   -0.0753   -0.2823 C.ar      1 <1>         0.0356 
     21 H           0.2149   -1.0231    1.1862 H         1 <1>         0.0836 
     22 H          -1.0900   -4.2435   -0.1565 H         1 <1>         0.0238 
     23 H           0.0704   -3.5058    0.9759 H         1 <1>         0.0238 
     24 H          -1.6744   -3.4898    1.3478 H         1 <1>         0.0238 
     25 H          -0.1699   -2.8218   -2.0462 H         1 <1>         0.0238 
     26 H           0.9925   -2.0279   -0.9559 H         1 <1>         0.0238 
     27 H          -0.1414   -1.0478   -1.9283 H         1 <1>         0.0238 
     28 H          -3.2934   -2.0140   -0.0622 H         1 <1>         0.0238 
     29 H          -2.6602   -2.8052   -1.5187 H         1 <1>         0.0238 
     30 H          -2.6354   -1.0369   -1.4030 H         1 <1>         0.0238 
     31 H          -0.1557    2.2378   -0.6690 H         1 <1>         0.0463 
     32 H          -2.5390   -0.8943    1.8707 H         1 <1>         0.2141 
     33 H          -2.5077    1.6336   -1.9123 H         1 <1>         0.1680 
     34 H           1.6990    0.8136    1.9059 H         1 <1>         0.0579 
     35 H           1.6527    0.8641   -2.3959 H         1 <1>         0.0579 
     36 H          -5.0580    2.0721    1.4412 H         1 <1>         0.1709 
     37 H           4.0249   -0.0501    1.8679 H         1 <1>         0.0611 
     38 H           3.9931    0.0386   -2.4275 H         1 <1>         0.0611 
@<TRIPOS>BOND
     1   20    1 1    
     2    7    2 1    
     3    2   32 1    
     4    3    4 ar   
     5   11    3 1    
     6    3   14 ar   
     7    4   17 ar   
     8   14    5 ar   
     9    5   17 ar   
    10    7    6 1    
    11    6    8 1    
    12    6    9 1    
    13    6   10 1    
    14   11    7 1    
    15    7   21 1    
    16    8   22 1    
    17    8   23 1    
    18    8   24 1    
    19    9   25 1    
    20    9   26 1    
    21    9   27 1    
    22   10   28 1    
    23   10   29 1    
    24   10   30 1    
    25   12   11 2    
    26   13   12 1    
    27   12   31 1    
    28   15   13 ar   
    29   13   16 ar   
    30   14   33 1    
    31   18   15 ar   
    32   15   34 1    
    33   16   19 ar   
    34   16   35 1    
    35   17   36 1    
    36   18   20 ar   
    37   18   37 1    
    38   19   20 ar   
    39   19   38 1    
@<TRIPOS>SUBSTRUCTURE
     1 ****        2 TEMP              0 ****  ****    0 ROOT 
@<TRIPOS>NORMAL
@<TRIPOS>FF_PBC
FORCE_FIELD_SETUP_FEATURE Force Field Setup information
v1.0  0 0.000000 0.000000 0.000000 0.000000 0.000000 0.000000 NONE 0 0 0 0 1 0 0 0 0 0 0 0 0
