#	Name:			PISM00537
#	Creating user name:	malab
#	Creation time:		Thu Apr 04 21:45:47 2019

#	Modifying user name:	malab
#	Modification time:	Thu Apr 04 21:47:42 2019

@<TRIPOS>MOLECULE
PISM00537
   15    15     1     1     0
SMALL
GAST_HUCK


@<TRIPOS>ATOM
      1 O1         22.0639    8.3605   -8.5161 O.2       1 <1>        -0.3571 
      2 C2         22.7537    8.6166   -9.4881 C.2       1 <1>         0.2607 
      3 O3         22.2708    8.2599  -10.6813 O.3       1 <1>        -0.2934 
      4 C4         24.0817    9.3196   -9.2740 C.ar      1 <1>         0.0618 
      5 C5         24.2484   10.1092   -8.1295 C.ar      1 <1>        -0.0403 
      6 C6         25.4398   10.8070   -7.9101 C.ar      1 <1>        -0.0420 
      7 C7         26.4813   10.7184   -8.8364 C.ar      1 <1>         0.0453 
      8 C8         26.3339    9.9131   -9.9683 C.ar      1 <1>        -0.0420 
      9 C9         25.1482    9.2015  -10.1754 C.ar      1 <1>        -0.0403 
     10 Cl10       27.9662   11.6114   -8.5791 Cl        1 <1>        -0.0664 
     11 H1         22.7857    8.5602  -11.4170 H         1 <1>         0.2523 
     12 H2         23.4463   10.1878   -7.4018 H         1 <1>         0.0671 
     13 H3         25.5578   11.4192   -7.0217 H         1 <1>         0.0635 
     14 H4         27.1457    9.8401  -10.6852 H         1 <1>         0.0635 
     15 H5         25.0784    8.5510  -11.0402 H         1 <1>         0.0671 
@<TRIPOS>BOND
     1    2    1 2    
     2    2    3 1    
     3    2    4 1    
     4    4    5 ar   
     5    5    6 ar   
     6    6    7 ar   
     7    7    8 ar   
     8    8    9 ar   
     9    4    9 ar   
    10    7   10 1    
    11    3   11 1    
    12    5   12 1    
    13    6   13 1    
    14    8   14 1    
    15    9   15 1    
@<TRIPOS>SUBSTRUCTURE
     1 ****        2 TEMP              0 ****  ****    0 ROOT 
@<TRIPOS>NORMAL
@<TRIPOS>FF_PBC
FORCE_FIELD_SETUP_FEATURE Force Field Setup information
v1.0  0 0.000000 0.000000 0.000000 0.000000 0.000000 0.000000 NONE 0 0 0 0 1 0 0 0 0 0 0 0 0
