#	Name:			PISM00575
#	Creating user name:	baoopengkun
#	Creation time:		Wed Dec 19 10:55:03 2018

#	Modifying user name:	baoopengkun
#	Modification time:	Wed Dec 19 11:03:19 2018

@<TRIPOS>MOLECULE
PISM00575
   24    24     1     1     0
SMALL
USER_CHARGES


@<TRIPOS>ATOM
      1 C1         22.3829   28.7325  -42.8217 C.3       1 <1>         0.0000 
      2 C2         21.3969   28.4532  -41.6785 C.ar      1 <1>         0.0000 
      3 C3         20.5501   27.3408  -41.7222 C.ar      1 <1>         0.0000 
      4 C4         19.6522   27.1077  -40.6753 C.ar      1 <1>         0.0000 
      5 C5         19.6385   27.9904  -39.5909 C.ar      1 <1>         0.0000 
      6 C6         20.5104   29.0863  -39.5856 C.ar      1 <1>         0.0000 
      7 N7         21.3496   29.2901  -40.6213 N.ar      1 <1>         0.0000 
      8 O8         20.5424   29.9962  -38.5247 O.3       1 <1>         0.0000 
      9 C9         18.7103   25.9225  -40.7132 C.2       1 <1>         0.0000 
     10 O10        18.7310   25.1663  -41.6733 O.2       1 <1>         0.0000 
     11 O11        17.8655   25.7183  -39.6954 O.3       1 <1>         0.0000 
     12 C12        21.6115   29.3053  -44.0395 C.3       1 <1>         0.0000 
     13 H2         20.5923   26.6632  -42.5679 H         1 <1>         0.0000 
     14 H3         18.9574   27.8262  -38.7625 H         1 <1>         0.0000 
     15 H4         19.9544   29.7829  -37.8088 H         1 <1>         0.0000 
     16 H5         17.3120   24.9519  -39.8052 H         1 <1>         0.0000 
     17 C17        23.4970   29.7111  -42.3618 C.3       1 <1>         0.0000 
     18 H1         22.8611   27.7809  -43.1117 H         1 <1>         0.0000 
     19 H6         22.3036   29.5069  -44.8720 H         1 <1>         0.0000 
     20 H7         21.1074   30.2445  -43.7641 H         1 <1>         0.0000 
     21 H8         20.8511   28.5881  -44.3859 H         1 <1>         0.0000 
     22 H9         24.0332   29.2935  -41.4952 H         1 <1>         0.0000 
     23 H10        23.0693   30.6845  -42.0759 H         1 <1>         0.0000 
     24 H11        24.2219   29.8743  -43.1746 H         1 <1>         0.0000 
@<TRIPOS>BOND
     1    2    1 1    
     2    2    3 ar   
     3    3    4 ar   
     4    4    5 ar   
     5    5    6 ar   
     6    6    7 ar   
     7    2    7 ar   
     8    6    8 1    
     9    4    9 1    
    10    9   10 2    
    11    9   11 1    
    12    1   12 1    
    13    3   13 1    
    14    5   14 1    
    15    8   15 1    
    16   11   16 1    
    17    1   17 1    
    18    1   18 1    
    19   12   19 1    
    20   12   20 1    
    21   12   21 1    
    22   17   22 1    
    23   17   23 1    
    24   17   24 1    
@<TRIPOS>SUBSTRUCTURE
     1 ****        2 TEMP              0 ****  ****    0 ROOT 
@<TRIPOS>NORMAL
@<TRIPOS>FF_PBC
FORCE_FIELD_SETUP_FEATURE Force Field Setup information
v1.0  0 0.000000 0.000000 0.000000 0.000000 0.000000 0.000000 NONE 0 0 0 0 0 0 0 0 0 0 0 0 0
