#	Name:			PISM00544.1
#	Creating user name:	malab
#	Creation time:		Fri Apr 05 22:37:25 2019

#	Modifying user name:	malab
#	Modification time:	Fri Apr 05 22:37:52 2019

@<TRIPOS>MOLECULE
PISM00544.1
   30    31     1     1     0
SMALL
USER_CHARGES


@<TRIPOS>ATOM
      1 C1         24.4111    6.7459   -5.5222 C.ar      1 <1>         0.0000 
      2 C2         25.6760    7.2893   -5.7603 C.ar      1 <1>         0.0000 
      3 C3         25.8076    8.6460   -6.0703 C.ar      1 <1>         0.0000 
      4 C4         24.6784    9.4702   -6.1435 C.ar      1 <1>         0.0000 
      5 C5         23.4130    8.9174   -5.9131 C.ar      1 <1>         0.0000 
      6 C6         23.2789    7.5613   -5.6016 C.ar      1 <1>         0.0000 
      7 C7         24.8376   10.9634   -6.4758 C.3       1 <1>         0.0000 
      8 C8         25.8394   11.6039   -5.5439 C.2       1 <1>         0.0000 
      9 C9         26.0994   11.2186   -4.2925 C.2       1 <1>         0.0000 
     10 O10        26.5278   12.6537   -6.0058 O.3       1 <1>         0.0000 
     11 C11        27.2882   12.9420   -4.9448 C.2       1 <1>         0.0000 
     12 C12        27.1270   12.1664   -3.8711 C.2       1 <1>         0.0000 
     13 C13        25.2428   11.1321   -7.9672 C.3       1 <1>         0.0000 
     14 C14        24.2371   10.4439   -8.9294 C.3       1 <1>         0.0000 
     15 N15        24.5804   10.7192  -10.3201 N.am      1 <1>         0.0000 
     16 H1         24.3077    5.6934   -5.2765 H         1 <1>         0.0000 
     17 H2         26.5570    6.6573   -5.7038 H         1 <1>         0.0000 
     18 H3         26.7955    9.0561   -6.2533 H         1 <1>         0.0000 
     19 H4         22.5238    9.5364   -5.9759 H         1 <1>         0.0000 
     20 H5         22.2944    7.1404   -5.4213 H         1 <1>         0.0000 
     21 H6         23.8871   11.4976   -6.3158 H         1 <1>         0.0000 
     22 H7         25.6630   10.4048   -3.7143 H         1 <1>         0.0000 
     23 H8         27.9986   13.7678   -4.9639 H         1 <1>         0.0000 
     24 H9         27.6358   12.2217   -2.9091 H         1 <1>         0.0000 
     25 H10        26.2480   10.7113   -8.1299 H         1 <1>         0.0000 
     26 H11        25.2766   12.2050   -8.2193 H         1 <1>         0.0000 
     27 H12        23.2211   10.8141   -8.7126 H         1 <1>         0.0000 
     28 H13        24.2454    9.3528   -8.7773 H         1 <1>         0.0000 
     29 H14        25.5387   10.6862  -10.6086 H         1 <1>         0.0000 
     30 H15        23.8516   10.8583  -10.9935 H         1 <1>         0.0000 
@<TRIPOS>BOND
     1    2    1 ar   
     2    2    3 ar   
     3    3    4 ar   
     4    4    5 ar   
     5    5    6 ar   
     6    1    6 ar   
     7    4    7 1    
     8    7    8 1    
     9    8    9 2    
    10    8   10 1    
    11   10   11 1    
    12   11   12 2    
    13    9   12 1    
    14    7   13 1    
    15   13   14 1    
    16   14   15 1    
    17    1   16 1    
    18    2   17 1    
    19    3   18 1    
    20    5   19 1    
    21    6   20 1    
    22    7   21 1    
    23    9   22 1    
    24   11   23 1    
    25   12   24 1    
    26   13   25 1    
    27   13   26 1    
    28   14   27 1    
    29   14   28 1    
    30   15   29 1    
    31   15   30 1    
@<TRIPOS>SUBSTRUCTURE
     1 ****        2 TEMP              0 ****  ****    0 ROOT 
@<TRIPOS>NORMAL
@<TRIPOS>FF_PBC
FORCE_FIELD_SETUP_FEATURE Force Field Setup information
v1.0  0 0.000000 0.000000 0.000000 0.000000 0.000000 0.000000 NONE 0 0 0 0 0 0 0 0 0 0 0 0 0
