#	Name:			PISM00538
#	Creating user name:	malab
#	Creation time:		Thu Apr 04 21:48:46 2019

#	Modifying user name:	malab
#	Modification time:	Thu Apr 04 21:49:24 2019

@<TRIPOS>MOLECULE
PISM00538
   13    14     1     1     0
SMALL
GAST_HUCK


@<TRIPOS>ATOM
      1 N1         22.4011    7.7734   -8.9862 N.2       1 <1>        -0.1628 
      2 N2         21.9400    8.1394   -7.7859 N.2       1 <1>        -0.1201 
      3 C3         23.6612    8.1885   -9.2975 C.ar      1 <1>         0.0995 
      4 C4         24.5239    8.9649   -8.4747 C.ar      1 <1>         0.0755 
      5 S5         24.0652    9.5476   -6.8201 S.3       1 <1>         0.0603 
      6 C6         24.1208    7.7944  -10.5593 C.ar      1 <1>        -0.0359 
      7 C7         25.3916    8.1434  -11.0221 C.ar      1 <1>        -0.0612 
      8 C8         26.2349    8.9041  -10.2117 C.ar      1 <1>        -0.0623 
      9 C9         25.7955    9.3068   -8.9487 C.ar      1 <1>        -0.0391 
     10 H1         23.4714    7.2011  -11.1958 H         1 <1>         0.0659 
     11 H2         25.7220    7.8249  -12.0064 H         1 <1>         0.0579 
     12 H3         27.2253    9.1805  -10.5613 H         1 <1>         0.0639 
     13 H4         26.4564    9.8981   -8.3226 H         1 <1>         0.0584 
@<TRIPOS>BOND
     1    2    1 2    
     2    1    3 1    
     3    3    4 ar   
     4    4    5 1    
     5    2    5 1    
     6    3    6 ar   
     7    6    7 ar   
     8    7    8 ar   
     9    8    9 ar   
    10    4    9 ar   
    11    6   10 1    
    12    7   11 1    
    13    8   12 1    
    14    9   13 1    
@<TRIPOS>SUBSTRUCTURE
     1 ****        2 TEMP              0 ****  ****    0 ROOT 
@<TRIPOS>NORMAL
@<TRIPOS>FF_PBC
FORCE_FIELD_SETUP_FEATURE Force Field Setup information
v1.0  0 0.000000 0.000000 0.000000 0.000000 0.000000 0.000000 NONE 0 0 0 0 1 0 0 0 0 0 0 0 0
