#	Name:			PISM01011.2
#	Creating user name:	malab
#	Creation time:		Tue Jul 02 10:08:54 2019

#	Modifying user name:	malab
#	Modification time:	Tue Jul 02 10:13:38 2019

@<TRIPOS>MOLECULE
PISM01011.2
   55    57     1     1     0
SMALL
GAST_HUCK


@<TRIPOS>ATOM
      1 C1          6.4697    6.6752    7.5881 C.3       1 <1>        -0.0353 
      2 C2          6.9028    5.4763    8.4077 C.2       1 <1>        -0.0766 
      3 C3          6.7851    5.6230    9.9069 C.3       1 <1>        -0.0210 
      4 C4          8.0996    5.2394   10.6332 C.3       1 <1>        -0.0292 
      5 C5          8.1906    3.7200   10.9198 C.3       1 <1>        -0.0077 
      6 C6          8.1467    2.8185    9.7113 C.2       1 <1>        -0.0210 
      7 C7          7.7991    3.1037    8.4537 C.2       1 <1>        -0.0193 
      8 C8          7.3534    4.3595    7.8195 C.2       1 <1>        -0.0930 
      9 C9          7.9167    1.8484    7.6985 C.2       1 <1>         0.0886 
     10 C10         8.3898    0.6787    8.5186 C.3       1 <1>         0.1382 
     11 C11         8.5338    1.3745    9.9088 C.3       1 <1>         0.1231 
     12 O12         7.6135    1.7549    6.5190 O.2       1 <1>        -0.3873 
     13 C13         7.3143   -0.3745    8.3497 C.2       1 <1>         0.1022 
     14 C14         6.3220   -0.6598    9.4022 C.2       1 <1>         0.2521 
     15 O15         9.6527    0.1520    8.0678 O.3       1 <1>        -0.4429 
     16 C16         7.2449   -1.0881    7.2185 C.2       1 <1>         0.1679 
     17 O17         8.1321   -0.8680    6.2374 O.3       1 <1>        -0.1891 
     18 C18         7.8680   -1.5897    5.0267 C.3       1 <1>         0.2675 
     19 O19         7.7857   -3.0037    5.2957 O.3       1 <1>        -0.2254 
     20 C20         8.8241   -3.5386    4.6654 C.2       1 <1>         0.2500 
     21 C21         9.6569   -2.6022    3.9183 C.2       1 <1>         0.0297 
     22 C22         9.0700   -1.4259    4.1302 C.2       1 <1>         0.0047 
     23 O23         9.0537   -4.7344    4.7095 O.2       1 <1>        -0.3691 
     24 C24        10.8815   -2.8954    3.0953 C.3       1 <1>        -0.0323 
     25 O25         9.7956    1.1579   10.5790 O.3       1 <1>        -0.2680 
     26 C26        10.9224    1.7202   10.0961 C.2       1 <1>         0.2324 
     27 C27        10.9753    2.7188    8.9606 C.3       1 <1>         0.0374 
     28 O28        11.9676    1.4195   10.6483 O.2       1 <1>        -0.3705 
     29 O29         6.6353   -1.4190   10.3015 O.2       1 <1>        -0.3646 
     30 O30         5.0853   -0.1360    9.3939 O.3       1 <1>        -0.2834 
     31 C31         4.8192    0.8640    8.3903 C.3       1 <1>         0.0643 
     32 H1          5.4283    6.9299    7.8362 H         1 <1>         0.0403 
     33 H2          6.5260    6.5026    6.5027 H         1 <1>         0.0403 
     34 H3          7.1134    7.5349    7.8284 H         1 <1>         0.0403 
     35 H4          5.9341    5.0260   10.2701 H         1 <1>         0.0441 
     36 H5          6.5701    6.6780   10.1464 H         1 <1>         0.0441 
     37 H6          8.1364    5.7552   11.6091 H         1 <1>         0.0321 
     38 H7          8.9662    5.5795   10.0429 H         1 <1>         0.0321 
     39 H8          7.3649    3.4218   11.5855 H         1 <1>         0.0492 
     40 H9          9.1335    3.5365   11.4604 H         1 <1>         0.0492 
     41 H10         7.4002    4.3362    6.7310 H         1 <1>         0.0229 
     42 H11         7.8026    0.9593   10.6159 H         1 <1>         0.0736 
     43 H12         9.9701   -0.5394    8.6406 H         1 <1>         0.1861 
     44 H13         6.4534   -1.8386    7.1359 H         1 <1>         0.2029 
     45 H14         6.9549   -1.2285    4.5235 H         1 <1>         0.1277 
     46 H15         9.4101   -0.4741    3.7236 H         1 <1>         0.0711 
     47 H16        10.8023   -2.4048    2.1137 H         1 <1>         0.0347 
     48 H17        10.9890   -3.9800    2.9435 H         1 <1>         0.0347 
     49 H18        11.7731   -2.5172    3.6172 H         1 <1>         0.0347 
     50 H19        10.5873    3.6904    9.2916 H         1 <1>         0.0483 
     51 H20        10.4516    2.4053    8.0525 H         1 <1>         0.0483 
     52 H21        12.0285    2.8688    8.6802 H         1 <1>         0.0483 
     53 H22         5.4157    1.7697    8.5685 H         1 <1>         0.0574 
     54 H23         3.7591    1.1409    8.4881 H         1 <1>         0.0574 
     55 H24         4.9799    0.5041    7.3625 H         1 <1>         0.0574 
@<TRIPOS>BOND
     1    2    1 1    
     2    2    3 1    
     3    3    4 1    
     4    4    5 1    
     5    5    6 1    
     6    6    7 2    
     7    7    8 1    
     8    2    8 2    
     9    7    9 1    
    10    9   10 1    
    11   10   11 1    
    12    6   11 1    
    13    9   12 2    
    14   10   13 1    
    15   13   14 1    
    16   10   15 1    
    17   13   16 2    
    18   16   17 1    
    19   17   18 1    
    20   18   19 1    
    21   19   20 1    
    22   20   21 1    
    23   21   22 2    
    24   18   22 1    
    25   20   23 2    
    26   21   24 1    
    27   11   25 1    
    28   25   26 1    
    29   26   27 1    
    30   26   28 2    
    31   14   29 2    
    32   14   30 1    
    33   30   31 1    
    34    1   32 1    
    35    1   33 1    
    36    1   34 1    
    37    3   35 1    
    38    3   36 1    
    39    4   37 1    
    40    4   38 1    
    41    5   39 1    
    42    5   40 1    
    43    8   41 1    
    44   11   42 1    
    45   15   43 1    
    46   16   44 1    
    47   18   45 1    
    48   22   46 1    
    49   24   47 1    
    50   24   48 1    
    51   24   49 1    
    52   27   50 1    
    53   27   51 1    
    54   27   52 1    
    55   31   53 1    
    56   31   54 1    
    57   31   55 1    
@<TRIPOS>SUBSTRUCTURE
     1 ****        2 TEMP              0 ****  ****    0 ROOT 
@<TRIPOS>NORMAL
@<TRIPOS>FF_PBC
FORCE_FIELD_SETUP_FEATURE Force Field Setup information
v1.0  0 0.000000 0.000000 0.000000 0.000000 0.000000 0.000000 NONE 0 0 0 0 1 0 0 0 0 0 0 0 0
