#	Name:			PISM01164
#	Creating user name:	malab
#	Creation time:		Thu Apr 11 01:08:28 2019

#	Modifying user name:	malab
#	Modification time:	Thu Apr 11 01:09:48 2019

@<TRIPOS>MOLECULE
PISM01164
   51    53     1     2     0
SMALL
GAST_HUCK


@<TRIPOS>ATOM
      1 O1          5.1499   18.6221   -6.4523 O.3       1 <1>        -0.2471 
      2 C2          5.5389   19.8583   -5.9287 C.ar      1 <1>         0.2363 
      3 C3          6.3831   20.6841   -6.6758 C.ar      1 <1>         0.1963 
      4 O4          6.8358   20.2593   -7.9246 O.3       1 <1>        -0.3985 
      5 H1          7.4390   22.5549   -6.7621 H         1 <1>         0.0000 
      6 C6          6.7768   21.9281   -6.1739 C.ar      1 <1>         0.0369 
      7 C7          6.3243   22.3634   -4.9235 C.ar      1 <1>         0.0182 
      8 C8          5.4864   21.5290   -4.1738 C.ar      1 <1>         0.0031 
      9 C9          5.1065   20.2775   -4.6665 C.ar      1 <1>         0.0469 
     10 C10         6.7481   23.7392   -4.3859 C.3       1 <1>         0.0163 
     11 C11         5.9811   24.8862   -5.1049 C.3       1 <1>         0.0285 
     12 C12         4.4624   24.8070   -4.8179 C.3       1 <1>         0.0856 
     13 O13         4.3257   25.4108   -3.5239 O.3       1 <1>        -0.2758 
     14 C14         5.3294   26.2768   -3.3577 C.2       1 <1>         0.2393 
     15 O15         5.4348   26.9823   -2.3673 O.2       1 <1>        -0.3699 
     16 C16         6.3315   26.2616   -4.4809 C.3       1 <1>         0.0767 
     17 C17         6.1020   27.4569   -5.4439 C.3       1 <1>        -0.0049 
     18 C18         6.3054   28.7696   -4.6744 C.ar      1 <1>        -0.0600 
     19 C19         5.2121   29.4565   -4.1347 C.ar      1 <1>        -0.0800 
     20 C20         5.4008   30.6515   -3.4339 C.ar      1 <1>        -0.0482 
     21 C21         6.6896   31.1716   -3.2624 C.ar      1 <1>         0.1091 
     22 C22         7.7825   30.4810   -3.7936 C.ar      1 <1>         0.1129 
     23 C23         7.5913   29.2912   -4.5007 C.ar      1 <1>        -0.0397 
     24 O24         6.9080   32.3671   -2.5703 O.3       1 <1>        -0.3414 
     25 O25         9.0711   30.9825   -3.6169 O.3       1 <1>        -0.3266 
     26 C26         9.6732   30.5855   -2.3756 C.3       1 <1>         0.0568 
     27 C27         6.0164   20.6975   -9.0195 C.3       1 <1>         0.0412 
     28 C28         3.7378   18.3857   -6.5842 C.3       1 <1>         0.0881 
     29 H2          5.1236   21.8486   -3.2021 H         1 <1>         0.0000 
     30 H3          4.4792   19.6362   -4.0579 H         1 <1>         0.0000 
     31 H4          7.8304   23.8553   -4.5574 H         1 <1>         0.0000 
     32 H5          6.5777   23.7933   -3.2988 H         1 <1>         0.0000 
     33 H6          6.2014   24.8497   -6.1852 H         1 <1>         0.0000 
     34 H7          4.0463   23.7896   -4.8301 H         1 <1>         0.0000 
     35 H8          3.8990   25.4111   -5.5461 H         1 <1>         0.0000 
     36 H9          7.3646   26.2908   -4.0971 H         1 <1>         0.0000 
     37 H10         5.0927   27.4401   -5.8801 H         1 <1>         0.0000 
     38 H11         6.8232   27.4008   -6.2749 H         1 <1>         0.0000 
     39 H12         4.2080   29.0628   -4.2548 H         1 <1>         0.0000 
     40 H13         4.5391   31.1688   -3.0246 H         1 <1>         0.0000 
     41 H14         8.4511   28.7731   -4.9126 H         1 <1>         0.0000 
     42 H15         6.1191   32.7765   -2.2335 H         1 <1>         0.0000 
     43 H16        10.6792   31.0269   -2.3240 H         1 <1>         0.0000 
     44 H17         9.7630   29.4892   -2.3219 H         1 <1>         0.0000 
     45 H18         9.0842   30.9467   -1.5181 H         1 <1>         0.0000 
     46 H19         6.4450   20.2949   -9.9495 H         1 <1>         0.0000 
     47 H20         6.0037   21.7969   -9.0825 H         1 <1>         0.0000 
     48 H21         4.9854   20.3242   -8.9158 H         1 <1>         0.0000 
     49 H22         3.6072   17.4231   -7.0997 H         1 <1>         0.0000 
     50 H23         3.2623   19.1747   -7.1869 H         1 <1>         0.0000 
     51 H24         3.2363   18.3225   -5.6079 H         1 <1>         0.0000 
@<TRIPOS>BOND
     1    2    1 1    
     2    2    3 ar   
     3    3    4 1    
     4    6    5 1    
     5    3    6 ar   
     6    6    7 ar   
     7    7    8 ar   
     8    8    9 ar   
     9    2    9 ar   
    10    7   10 1    
    11   10   11 1    
    12   11   12 1    
    13   12   13 1    
    14   13   14 1    
    15   14   15 2    
    16   14   16 1    
    17   11   16 1    
    18   16   17 1    
    19   17   18 1    
    20   18   19 ar   
    21   19   20 ar   
    22   20   21 ar   
    23   21   22 ar   
    24   22   23 ar   
    25   18   23 ar   
    26   21   24 1    
    27   22   25 1    
    28   25   26 1    
    29    4   27 1    
    30    1   28 1    
    31    8   29 1    
    32    9   30 1    
    33   10   31 1    
    34   10   32 1    
    35   11   33 1    
    36   12   34 1    
    37   12   35 1    
    38   16   36 1    
    39   17   37 1    
    40   17   38 1    
    41   19   39 1    
    42   20   40 1    
    43   23   41 1    
    44   24   42 1    
    45   26   43 1    
    46   26   44 1    
    47   26   45 1    
    48   27   46 1    
    49   27   47 1    
    50   27   48 1    
    51   28   49 1    
    52   28   50 1    
    53   28   51 1    
@<TRIPOS>SUBSTRUCTURE
     1 ****        2 TEMP              0 ****  ****    0 ROOT 
@<TRIPOS>NORMAL
@<TRIPOS>FF_PBC
FORCE_FIELD_SETUP_FEATURE Force Field Setup information
v1.0  0 0.000000 0.000000 0.000000 0.000000 0.000000 0.000000 NONE 0 0 0 0 0 0 0 0 0 0 0 0 0
@<TRIPOS>RENDERING_ATTRS
ANTIALIASED_LINES 
*
