#	Name:			PISM01074
#	Creating user name:	Qinrunwen
#	Creation time:		Tue Apr 02 22:13:19 2019

#	Modifying user name:	Qinrunwen
#	Modification time:	Tue Apr 02 22:16:16 2019

@<TRIPOS>MOLECULE
PISM01074
   40    42     1     1     0
SMALL
GAST_HUCK


@<TRIPOS>ATOM
      1 C1         17.2806   -0.8722   -3.3899 C.ar      1 <1>        -0.0687 
      2 C2         17.2854    0.4398   -2.9105 C.ar      1 <1>        -0.0685 
      3 C3         17.0716    1.5058   -3.7889 C.ar      1 <1>        -0.0581 
      4 C4         16.8779    1.2719   -5.1556 C.ar      1 <1>        -0.0182 
      5 C5         16.8986   -0.0433   -5.6337 C.ar      1 <1>        -0.0581 
      6 C6         17.0747   -1.1133   -4.7503 C.ar      1 <1>        -0.0685 
      7 C7         16.6599    2.4546   -6.1137 C.3       1 <1>         0.0703 
      8 N8         15.6642    2.2202   -7.1558 N.am      1 <1>        -0.2858 
      9 C9         15.5524    3.1657   -8.2069 C.ar      1 <1>         0.1205 
     10 N10        16.1350    4.3787   -8.1030 N.ar      1 <1>        -0.2693 
     11 C11        15.9858    5.3044   -9.0796 C.ar      1 <1>         0.1484 
     12 N12        15.3877    5.0364  -10.2636 N.ar      1 <1>        -0.2787 
     13 C13        14.8071    3.8299  -10.4143 C.ar      1 <1>         0.1306 
     14 C14        14.8595    2.9018   -9.3849 C.ar      1 <1>         0.0853 
     15 N15        14.1678    1.8407   -9.8206 N.2       1 <1>        -0.3096 
     16 C16        13.7540    2.0568  -10.9997 C.2       1 <1>         0.1012 
     17 N17        14.1127    3.2433  -11.4205 N.pl3     1 <1>        -0.2343 
     18 N18        16.4732    6.6094   -8.8295 N.am      1 <1>        -0.2905 
     19 C19        16.2511    7.6638   -9.8143 C.3       1 <1>         0.0586 
     20 C20        16.7583    9.0430   -9.3193 C.3       1 <1>         0.0664 
     21 O21        16.4632   10.0835  -10.2678 O.3       1 <1>        -0.3928 
     22 C22        13.8796    3.8128  -12.7405 C.3       1 <1>         0.0477 
     23 H1         17.4372   -1.7000   -2.7059 H         1 <1>         0.0559 
     24 H2         17.4571    0.6325   -1.8564 H         1 <1>         0.0599 
     25 H3         17.0636    2.5184   -3.3987 H         1 <1>         0.0557 
     26 H4         16.7816   -0.2432   -6.6933 H         1 <1>         0.0557 
     27 H5         17.0531   -2.1328   -5.1217 H         1 <1>         0.0599 
     28 H6         17.6369    2.6535   -6.5817 H         1 <1>         0.0718 
     29 H7         16.3588    3.3539   -5.5529 H         1 <1>         0.0718 
     30 H8         15.0517    1.4305   -7.1160 H         1 <1>         0.2035 
     31 H9         13.1790    1.3275  -11.5720 H         1 <1>         0.1283 
     32 H10        16.9396    6.8026   -7.9653 H         1 <1>         0.1980 
     33 H11        15.1723    7.7441  -10.0254 H         1 <1>         0.0570 
     34 H12        16.7643    7.4002  -10.7531 H         1 <1>         0.0570 
     35 H13        17.8426    8.9974   -9.1196 H         1 <1>         0.0579 
     36 H14        16.2449    9.3023   -8.3793 H         1 <1>         0.0579 
     37 H15        16.8987    9.9595  -11.1054 H         1 <1>         0.2095 
     38 H16        14.6563    4.5592  -12.9708 H         1 <1>         0.0574 
     39 H17        12.8958    4.3050  -12.7606 H         1 <1>         0.0574 
     40 H18        13.9098    3.0282  -13.5129 H         1 <1>         0.0574 
@<TRIPOS>BOND
     1    2    1 ar   
     2    2    3 ar   
     3    3    4 ar   
     4    4    5 ar   
     5    5    6 ar   
     6    1    6 ar   
     7    4    7 1    
     8    7    8 1    
     9    8    9 1    
    10    9   10 ar   
    11   10   11 ar   
    12   11   12 ar   
    13   12   13 ar   
    14   13   14 ar   
    15    9   14 ar   
    16   14   15 1    
    17   15   16 2    
    18   16   17 1    
    19   13   17 1    
    20   11   18 1    
    21   18   19 1    
    22   19   20 1    
    23   20   21 1    
    24   17   22 1    
    25    1   23 1    
    26    2   24 1    
    27    3   25 1    
    28    5   26 1    
    29    6   27 1    
    30    7   28 1    
    31    7   29 1    
    32    8   30 1    
    33   16   31 1    
    34   18   32 1    
    35   19   33 1    
    36   19   34 1    
    37   20   35 1    
    38   20   36 1    
    39   21   37 1    
    40   22   38 1    
    41   22   39 1    
    42   22   40 1    
@<TRIPOS>SUBSTRUCTURE
     1 ****        2 TEMP              0 ****  ****    0 ROOT 
@<TRIPOS>NORMAL
@<TRIPOS>FF_PBC
FORCE_FIELD_SETUP_FEATURE Force Field Setup information
v1.0  0 0.000000 0.000000 0.000000 0.000000 0.000000 0.000000 NONE 0 0 0 0 1 0 0 0 0 0 0 0 0
