#	Name:			PISM01171.1
#	Creating user name:	baoopengkun
#	Creation time:		Tue Dec 18 16:49:53 2018

#	Modifying user name:	baoopengkun
#	Modification time:	Tue Dec 18 16:52:48 2018

@<TRIPOS>MOLECULE
PISM01171.1
   46    46     1     1     0
SMALL
GAST_HUCK


@<TRIPOS>ATOM
      1 C1          4.0798   27.2074   -6.6470 C.ar      1 <1>        -0.0686 
      2 C2          5.0567   27.3670   -5.6599 C.ar      1 <1>        -0.0603 
      3 C3          4.8762   28.2962   -4.6287 C.ar      1 <1>        -0.0413 
      4 C4          3.7135   29.0751   -4.6034 C.ar      1 <1>        -0.0603 
      5 C5          2.7349   28.9165   -5.5890 C.ar      1 <1>        -0.0686 
      6 C6          2.9165   27.9810   -6.6112 C.ar      1 <1>        -0.0687 
      7 C7          5.9449   28.4575   -3.5381 C.3       1 <1>         0.0008 
      8 C8          7.0176   29.4792   -4.0089 C.3       1 <1>         0.0585 
      9 C9          8.1769   29.6444   -2.9781 C.3       1 <1>         0.1605 
     10 C10         7.7481   30.3839   -1.7296 C.2       1 <1>         0.2090 
     11 O11         6.5873   30.7328   -1.5963 O.2       1 <1>        -0.3940 
     12 N12         8.6907   30.6406   -0.7964 N.am      1 <1>        -0.2621 
     13 C13         8.3466   31.3445    0.4434 C.3       1 <1>         0.1423 
     14 C14         7.3417   30.5406    1.2392 C.2       1 <1>         0.2571 
     15 O15         7.7020   29.6740    2.0210 O.2       1 <1>        -0.3680 
     16 O16         6.0509   30.8249    1.0611 O.3       1 <1>        -0.2910 
     17 C17         7.9195   32.8113    0.1433 C.3       1 <1>        -0.0087 
     18 C18         8.0425   33.7917    1.3509 C.3       1 <1>        -0.0424 
     19 C19         7.6750   35.2327    0.8957 C.3       1 <1>        -0.0624 
     20 C20         7.1468   33.3794    2.5518 C.3       1 <1>        -0.0624 
     21 O21         9.2831   30.3752   -3.5508 O.3       1 <1>        -0.3697 
     22 N22         6.3850   30.7794   -4.3228 N.3       1 <1>        -0.3216 
     23 H1          4.2245   26.4824   -7.4422 H         1 <1>         0.0599 
     24 H2          5.9587   26.7647   -5.6999 H         1 <1>         0.0557 
     25 H3          3.5654   29.8092   -3.8178 H         1 <1>         0.0557 
     26 H4          1.8333   29.5207   -5.5607 H         1 <1>         0.0599 
     27 H5          2.1559   27.8558   -7.3757 H         1 <1>         0.0559 
     28 H6          6.4100   27.4785   -3.3417 H         1 <1>         0.0443 
     29 H7          5.4667   28.7841   -2.6030 H         1 <1>         0.0443 
     30 H8          7.4423   29.0778   -4.9454 H         1 <1>         0.0532 
     31 H9          8.5281   28.6488   -2.6593 H         1 <1>         0.0855 
     32 H10         9.6407   30.3628   -0.9573 H         1 <1>         0.1885 
     33 H11         9.2488   31.3983    1.0765 H         1 <1>         0.0816 
     34 H12         5.4968   30.2599    1.5868 H         1 <1>         0.2540 
     35 H13         6.8922   32.8371   -0.2509 H         1 <1>         0.0316 
     36 H14         8.5872   33.1773   -0.6540 H         1 <1>         0.0316 
     37 H15         9.0924   33.8088    1.6939 H         1 <1>         0.0298 
     38 H16         8.3223   35.5561    0.0655 H         1 <1>         0.0232 
     39 H17         7.8025   35.9468    1.7244 H         1 <1>         0.0232 
     40 H18         6.6276   35.2729    0.5589 H         1 <1>         0.0232 
     41 H19         7.1906   34.1447    3.3422 H         1 <1>         0.0232 
     42 H20         7.4851   32.4318    2.9950 H         1 <1>         0.0232 
     43 H21         6.0996   33.2724    2.2304 H         1 <1>         0.0232 
     44 H22         9.6598   29.9592   -4.3201 H         1 <1>         0.2134 
     45 H23         7.1255   31.4851   -4.6753 H         1 <1>         0.1188 
     46 H24         5.8995   31.1843   -3.4426 H         1 <1>         0.1188 
@<TRIPOS>BOND
     1    2    1 ar   
     2    2    3 ar   
     3    3    4 ar   
     4    4    5 ar   
     5    5    6 ar   
     6    1    6 ar   
     7    3    7 1    
     8    7    8 1    
     9    8    9 1    
    10    9   10 1    
    11   10   11 2    
    12   10   12 am   
    13   12   13 1    
    14   13   14 1    
    15   14   15 2    
    16   14   16 1    
    17   13   17 1    
    18   17   18 1    
    19   18   19 1    
    20   18   20 1    
    21    9   21 1    
    22    8   22 1    
    23    1   23 1    
    24    2   24 1    
    25    4   25 1    
    26    5   26 1    
    27    6   27 1    
    28    7   28 1    
    29    7   29 1    
    30    8   30 1    
    31    9   31 1    
    32   12   32 1    
    33   13   33 1    
    34   16   34 1    
    35   17   35 1    
    36   17   36 1    
    37   18   37 1    
    38   19   38 1    
    39   19   39 1    
    40   19   40 1    
    41   20   41 1    
    42   20   42 1    
    43   20   43 1    
    44   21   44 1    
    45   22   45 1    
    46   22   46 1    
@<TRIPOS>SUBSTRUCTURE
     1 ****        2 TEMP              0 ****  ****    0 ROOT 
@<TRIPOS>NORMAL
@<TRIPOS>FF_PBC
FORCE_FIELD_SETUP_FEATURE Force Field Setup information
v1.0  0 0.000000 0.000000 0.000000 0.000000 0.000000 0.000000 NONE 0 0 0 0 1 0 0 0 0 0 0 0 0
