#	Name:			PISM01023
#	Creating user name:	14062
#	Creation time:		Sat Oct 19 23:50:29 2019

#	Modifying user name:	14062
#	Modification time:	Sat Oct 19 23:55:14 2019

@<TRIPOS>MOLECULE
PISM01023
   30    32     2     1     0
SMALL
GAST_HUCK


@<TRIPOS>ATOM
      1 C1          2.3243    0.2237   -4.4466 C.2       1 BENZYL      0.3288 
      2 N2          3.3757    0.7001   -3.8232 N.pl3     1 BENZYL     -0.1824 
      3 C2          4.5802    0.8473   -4.4452 C.ar      1 BENZYL      0.0235 
      4 C3          4.7395    0.4150   -5.7664 C.ar      1 BENZYL     -0.0322 
      5 C4          5.9782    0.4865   -6.4129 C.ar      1 BENZYL     -0.1438 
      6 C5          7.0786    1.0274   -5.7440 C.ar      1 BENZYL     -0.1518 
      7 C6          6.9257    1.5081   -4.4415 C.ar      1 BENZYL     -0.1593 
      8 C7          5.6828    1.4342   -3.8046 C.ar      1 BENZYL     -0.1157 
      9 N9          2.3781   -0.1697   -5.7330 N.am      1 BENZYL     -0.1993 
     10 C10         3.5068   -0.1229   -6.4498 C.2       1 BENZYL      0.1402 
     11 O11         3.5302   -0.5011   -7.6097 O.2       1 BENZYL     -0.4516 
     12 O12         1.2533    0.1155   -3.8684 O.2       1 BENZYL     -0.3724 
     13 H1          6.0864    0.1247   -7.4302 H         1 BENZYL      0.0117 
     14 C2          3.2373    1.0384   -2.5183 C.ar      2 BENZYL      0.0664 
     15 C3          2.4627    2.1454   -2.1589 C.ar      2 BENZYL     -0.0183 
     16 C4          2.3084    2.5049   -0.8136 C.ar      2 BENZYL      0.1053 
     17 C5          2.9460    1.7359    0.1688 C.ar      2 BENZYL     -0.0537 
     18 C6          3.7211    0.6275   -0.1849 C.ar      2 BENZYL     -0.0863 
     19 C7          3.8650    0.2765   -1.5292 C.ar      2 BENZYL     -0.0531 
     20 H2          8.0459    1.0759   -6.2343 H         1 BENZYL      0.0308 
     21 H3          7.7759    1.9417   -3.9235 H         1 BENZYL     -0.0088 
     22 H4          5.6016    1.8490   -2.8062 H         1 BENZYL      0.0156 
     23 H5          1.5556   -0.5226   -6.1726 H         1 BENZYL      0.2207 
     24 H6          1.9845    2.7212   -2.9439 H         2 BENZYL      0.0403 
     25 N25         1.5554    3.5793   -0.4640 N.pl3     2 BENZYL      0.0626 
     26 H8          2.8473    1.9898    1.2188 H         2 BENZYL      0.0392 
     27 H9          4.2119    0.0381    0.5838 H         2 BENZYL      0.0539 
     28 H10         4.4622   -0.5854   -1.8092 H         2 BENZYL      0.0416 
     29 O29         1.0014    4.2537   -1.3049 O.2       2 BENZYL     -0.1241 
     30 O30         1.3990    3.9385    0.8819 O.3       2 BENZYL     -0.0276 
@<TRIPOS>BOND
     1    2    3 1    
     2    3    4 ar   
     3    3    8 ar   
     4    8    7 ar   
     5    7    6 ar   
     6    6    5 ar   
     7    5    4 ar   
     8    2    1 1    
     9    1    9 am   
    10    9   10 am   
    11    4   10 1    
    12   10   11 2    
    13    1   12 2    
    14   14    2 1    
    15   14   15 ar   
    16   14   19 ar   
    17   19   18 ar   
    18   18   17 ar   
    19   17   16 ar   
    20   16   15 ar   
    21    5   13 1    
    22    6   20 1    
    23    7   21 1    
    24    8   22 1    
    25    9   23 1    
    26   15   24 1    
    27   16   25 1    
    28   17   26 1    
    29   18   27 1    
    30   19   28 1    
    31   25   29 2    
    32   25   30 1    
@<TRIPOS>SUBSTRUCTURE
     1 BENZYL      2 PERM              0 ****  ****    1  
     2 BENZYL     14 PERM              0 ****  ****    1 ROOT 
@<TRIPOS>NORMAL
@<TRIPOS>FF_PBC
FORCE_FIELD_SETUP_FEATURE Force Field Setup information
v1.0  0 0.000000 0.000000 0.000000 0.000000 0.000000 0.000000 NONE 0 0 0 0 1 0 0 0 0 0 0 0 0
