#	Name:			PISM00041
#	Creating user name:	baoopengkun
#	Creation time:		Sat Nov 17 21:31:16 2018

#	Modifying user name:	baoopengkun
#	Modification time:	Sat Nov 17 21:34:43 2018

@<TRIPOS>MOLECULE
PISM00041
   44    46     1     2     0
SMALL
GAST_HUCK


@<TRIPOS>ATOM
      1 C1          1.1097   -4.2613   16.2150 C.ar      1 <1>        -0.0732 
      2 C2          0.6673   -4.1951   17.5393 C.ar      1 <1>        -0.0725 
      3 C3          1.1193   -5.1321   18.4728 C.ar      1 <1>        -0.0732 
      4 C4          2.0180   -6.1296   18.0834 C.ar      1 <1>        -0.0700 
      5 C5          2.4952   -6.1725   16.7688 C.ar      1 <1>        -0.0411 
      6 C6          2.0189   -5.2511   15.8308 C.ar      1 <1>        -0.0700 
      7 C7          3.5137   -7.2088   16.3433 C.2       1 <1>         0.0657 
      8 C8          4.6780   -7.3665   16.9894 C.2       1 <1>         0.1186 
      9 O9          5.5741   -8.2859   16.6041 O.3       1 <1>        -0.2645 
     10 C10         5.5279   -8.5962   15.2004 C.3       1 <1>         0.1606 
     11 N11         4.1847   -8.8642   14.6978 N.am      1 <1>        -0.2771 
     12 C12         3.1975   -8.0886   15.2046 C.2       1 <1>         0.1679 
     13 O13         2.0487   -8.0714   14.7994 O.2       1 <1>        -0.4127 
     14 C14         3.9430   -9.8454   13.6225 C.3       1 <1>         0.0436 
     15 C15         4.6772   -9.2805   12.3724 C.3       1 <1>        -0.0628 
     16 C16         4.5182  -11.1831   14.1364 C.ar      1 <1>        -0.0243 
     17 C17         4.2623  -11.5432   15.4655 C.ar      1 <1>        -0.0232 
     18 C18         4.7873  -12.7208   16.0035 C.ar      1 <1>         0.0698 
     19 C19         5.5636  -13.5651   15.2071 C.ar      1 <1>        -0.0058 
     20 C20         5.8051  -13.2284   13.8734 C.ar      1 <1>         0.0698 
     21 C21         5.2780  -12.0492   13.3392 C.ar      1 <1>        -0.0232 
     22 C22         2.4722  -10.1625   13.2241 C.3       1 <1>        -0.0628 
     23 Cl23        6.7714  -14.2885   12.8677 Cl        1 <1>        -0.0626 
     24 Cl24        4.4729  -13.1383   17.6752 Cl        1 <1>        -0.0626 
     25 C25         5.1340   -6.5802   18.1933 C.3       1 <1>         0.0179 
     26 H1          0.7476   -3.5441   15.4848 H         1 <1>         0.0588 
     27 H2         -0.0279   -3.4179   17.8417 H         1 <1>         0.0528 
     28 H3          0.7702   -5.0863   19.4998 H         1 <1>         0.0588 
     29 H4          2.3387   -6.8745   18.8043 H         1 <1>         0.0522 
     30 H5          2.3574   -5.3027   14.8007 H         1 <1>         0.0522 
     31 H6          6.2109   -9.4449   15.0460 H         1 <1>         0.0905 
     32 H7          5.9360   -7.7353   14.6455 H         1 <1>         0.0905 
     33 H8          4.4580   -9.8646   11.4659 H         1 <1>         0.0158 
     34 H9          5.7669   -9.2619   12.5220 H         1 <1>         0.0158 
     35 H10         4.3355   -8.2491   12.1948 H         1 <1>         0.0158 
     36 H11         3.6490  -10.9059   16.0945 H         1 <1>         0.0858 
     37 H12         5.9760  -14.4783   15.6221 H         1 <1>         0.0868 
     38 H13         5.4715  -11.8289   12.2972 H         1 <1>         0.0858 
     39 H14         2.4505  -10.9983   12.5074 H         1 <1>         0.0158 
     40 H15         1.9907   -9.3006   12.7376 H         1 <1>         0.0158 
     41 H16         1.8837  -10.4610   14.1051 H         1 <1>         0.0158 
     42 H17         6.2015   -6.3377   18.0812 H         1 <1>         0.0528 
     43 H18         5.0064   -7.1946   19.0967 H         1 <1>         0.0528 
     44 H19         4.5914   -5.6325   18.3184 H         1 <1>         0.0528 
@<TRIPOS>BOND
     1    2    1 ar   
     2    2    3 ar   
     3    3    4 ar   
     4    4    5 ar   
     5    5    6 ar   
     6    1    6 ar   
     7    5    7 1    
     8    7    8 2    
     9    8    9 1    
    10    9   10 1    
    11   10   11 1    
    12   11   12 am   
    13    7   12 1    
    14   12   13 2    
    15   11   14 1    
    16   14   15 1    
    17   14   16 1    
    18   16   17 ar   
    19   17   18 ar   
    20   18   19 ar   
    21   19   20 ar   
    22   20   21 ar   
    23   16   21 ar   
    24   14   22 1    
    25   20   23 1    
    26   18   24 1    
    27    8   25 1    
    28    1   26 1    
    29    2   27 1    
    30    3   28 1    
    31    4   29 1    
    32    6   30 1    
    33   10   31 1    
    34   10   32 1    
    35   15   33 1    
    36   15   34 1    
    37   15   35 1    
    38   17   36 1    
    39   19   37 1    
    40   21   38 1    
    41   22   39 1    
    42   22   40 1    
    43   22   41 1    
    44   25   42 1    
    45   25   43 1    
    46   25   44 1    
@<TRIPOS>SUBSTRUCTURE
     1 ****        2 TEMP              0 ****  ****    0 ROOT 
@<TRIPOS>NORMAL
@<TRIPOS>FF_PBC
FORCE_FIELD_SETUP_FEATURE Force Field Setup information
v1.0  0 0.000000 0.000000 0.000000 0.000000 0.000000 0.000000 NONE 0 0 0 0 1 0 0 0 0 0 0 0 0
@<TRIPOS>RENDERING_ATTRS
ANTIALIASED_LINES 
*
