#	Name:			PISM01025
#	Creating user name:	14062
#	Creation time:		Sat Oct 19 23:50:29 2019

#	Modifying user name:	14062
#	Modification time:	Sat Oct 19 23:58:01 2019

@<TRIPOS>MOLECULE
PISM01025
   31    33     2     1     0
SMALL
GAST_HUCK


@<TRIPOS>ATOM
      1 C1          2.4044    0.1282   -4.3578 C.2       1 BENZYL      0.3363 
      2 N2          3.4401    0.6484   -3.7437 N.pl3     1 BENZYL     -0.1566 
      3 C2          4.6503    0.7906   -4.3535 C.ar      1 BENZYL      0.1058 
      4 C3          4.8269    0.3373   -5.6639 C.ar      1 BENZYL      0.0808 
      5 C4          6.0607    0.4300   -6.3146 C.ar      1 BENZYL     -0.0504 
      6 C5          7.1473    1.0044   -5.6515 C.ar      1 BENZYL     -0.0674 
      7 C6          6.9839    1.4875   -4.3509 C.ar      1 BENZYL     -0.0666 
      8 C7          5.7442    1.3902   -3.7109 C.ar      1 BENZYL     -0.0294 
      9 N9          2.4785   -0.3099   -5.6285 N.am      1 BENZYL     -0.1774 
     10 C10         3.6134   -0.2522   -6.3357 C.2       1 BENZYL      0.2274 
     11 O11         3.6759   -0.6580   -7.4837 O.2       1 BENZYL     -0.3831 
     12 O12         1.3322    0.0251   -3.7845 O.2       1 BENZYL     -0.3715 
     13 C13         2.0941    3.1564   -3.2736 C.3       2 BENZYL     -0.0324 
     14 C2          3.2780    1.0429   -2.4579 C.ar      2 BENZYL      0.0900 
     15 C3          2.6096    2.2370   -2.1568 C.ar      2 BENZYL     -0.0042 
     16 C4          2.4151    2.5898   -0.8153 C.ar      2 BENZYL      0.0327 
     17 C5          2.9266    1.7872    0.2084 C.ar      2 BENZYL     -0.0657 
     18 C6          3.6179    0.6126   -0.0976 C.ar      2 BENZYL     -0.0771 
     19 C7          3.7847    0.2383   -1.4329 C.ar      2 BENZYL     -0.0411 
     20 H1          6.1752    0.0591   -7.3284 H         1 BENZYL      0.0639 
     21 H2          8.1123    1.0759   -6.1445 H         1 BENZYL      0.0534 
     22 H3          7.8255    1.9417   -3.8358 H         1 BENZYL      0.0624 
     23 H4          5.6566    1.7942   -2.7081 H         1 BENZYL      0.0553 
     24 H5          1.6649   -0.6976   -6.0597 H         1 BENZYL      0.2271 
     25 Cl25        1.5258    4.0408   -0.3930 Cl        2 BENZYL     -0.0804 
     26 H6          2.3473    4.2033   -3.0497 H         2 BENZYL      0.0372 
     27 H7          1.0004    3.0552   -3.3382 H         2 BENZYL      0.0372 
     28 H8          2.5300    2.9122   -4.2531 H         2 BENZYL      0.0372 
     29 H9          2.7849    2.0781    1.2443 H         2 BENZYL      0.0512 
     30 H10         4.0214   -0.0068    0.6978 H         2 BENZYL      0.0532 
     31 H11         4.3081   -0.6803   -1.6777 H         2 BENZYL      0.0524 
@<TRIPOS>BOND
     1    2    3 1    
     2    3    4 ar   
     3    3    8 ar   
     4    8    7 ar   
     5    7    6 ar   
     6    6    5 ar   
     7    5    4 ar   
     8    2    1 1    
     9    1    9 am   
    10    9   10 am   
    11    4   10 1    
    12   10   11 2    
    13    1   12 2    
    14   14    2 1    
    15   14   15 ar   
    16   14   19 ar   
    17   19   18 ar   
    18   18   17 ar   
    19   17   16 ar   
    20   16   15 ar   
    21   15   13 1    
    22    5   20 1    
    23    6   21 1    
    24    7   22 1    
    25    8   23 1    
    26    9   24 1    
    27   16   25 1    
    28   13   26 1    
    29   13   27 1    
    30   13   28 1    
    31   17   29 1    
    32   18   30 1    
    33   19   31 1    
@<TRIPOS>SUBSTRUCTURE
     1 BENZYL      2 PERM              0 ****  ****    1  
     2 BENZYL     14 PERM              0 ****  ****    1 ROOT 
@<TRIPOS>NORMAL
@<TRIPOS>FF_PBC
FORCE_FIELD_SETUP_FEATURE Force Field Setup information
v1.0  0 0.000000 0.000000 0.000000 0.000000 0.000000 0.000000 NONE 0 0 0 0 1 0 0 0 0 0 0 0 0
