#	Name:			PISM00359
#	Creating user name:	baoopengkun
#	Creation time:		Sun Mar 31 20:36:50 2019

#	Modifying user name:	baoopengkun
#	Modification time:	Sun Mar 31 20:38:31 2019

@<TRIPOS>MOLECULE
PISM00359
   43    44     1     1     0
SMALL
GAST_HUCK


@<TRIPOS>ATOM
      1 O1          0.1313    8.4898   -2.2538 O.3       1 <1>        -0.3807 
      2 C2         -0.5265    8.9494   -3.4524 C.3       1 <1>         0.1023 
      3 C3         -2.0470    8.8702   -3.3996 C.2       1 <1>         0.0999 
      4 C4         -2.5888    8.4880   -2.2233 C.2       1 <1>        -0.0199 
      5 N5         -3.0108    9.1371   -4.2937 N.pl3     1 <1>        -0.1909 
      6 C6         -4.1536    8.8936   -3.7042 C.2       1 <1>         0.1110 
      7 N7         -3.9836    8.5341   -2.5209 N.2       1 <1>        -0.3382 
      8 C8         -2.9223    9.5141   -5.5668 C.2       1 <1>         0.1181 
      9 C9         -1.5945    9.4122   -6.3174 C.3       1 <1>         0.1317 
     10 O10        -1.1794    8.0345   -6.2654 O.3       1 <1>        -0.3711 
     11 C11        -1.2410   10.0238   -7.7338 C.3       1 <1>         0.0048 
     12 C12        -1.4144   11.5790   -7.7369 C.3       1 <1>        -0.0551 
     13 C13         0.2821    9.7394   -7.9740 C.3       1 <1>        -0.0551 
     14 C14        -2.0074    9.4069   -8.9576 C.3       1 <1>        -0.0551 
     15 C15        -3.9670    9.9842   -6.2762 C.2       1 <1>        -0.0362 
     16 C16        -5.3134   10.4694   -5.7843 C.ar      1 <1>        -0.0517 
     17 C17        -5.3822   11.3580   -4.7048 C.ar      1 <1>        -0.0678 
     18 C18        -6.6196   11.8313   -4.2611 C.ar      1 <1>        -0.0573 
     19 C19        -7.7928   11.4264   -4.9027 C.ar      1 <1>         0.0310 
     20 C20        -7.7280   10.5378   -5.9787 C.ar      1 <1>        -0.0573 
     21 C21        -6.4912   10.0563   -6.4163 C.ar      1 <1>        -0.0678 
     22 Cl22       -9.3447   12.0303   -4.3580 Cl        1 <1>        -0.0785 
     23 H1          0.0225    7.5570   -2.0894 H         1 <1>         0.2126 
     24 H2         -0.0729    8.3730   -4.2689 H         1 <1>         0.0739 
     25 H3         -0.2296   10.0062   -3.5276 H         1 <1>         0.0739 
     26 H4         -2.1575    8.2075   -1.2638 H         1 <1>         0.0342 
     27 H5         -5.1890    8.9007   -4.0313 H         1 <1>         0.1181 
     28 H6         -0.9389   10.0216   -5.6920 H         1 <1>         0.0853 
     29 H7         -1.7707    7.4366   -6.7089 H         1 <1>         0.2142 
     30 H8         -1.1494   11.9848   -8.7260 H         1 <1>         0.0238 
     31 H9         -2.4443   11.8910   -7.5174 H         1 <1>         0.0238 
     32 H10        -0.7611   12.0588   -6.9920 H         1 <1>         0.0238 
     33 H11         0.4649    8.6573   -8.0636 H         1 <1>         0.0238 
     34 H12         0.9096   10.1223   -7.1546 H         1 <1>         0.0238 
     35 H13         0.6366   10.2183   -8.9004 H         1 <1>         0.0238 
     36 H14        -1.3630    9.3439   -9.8489 H         1 <1>         0.0238 
     37 H15        -2.8641   10.0156   -9.2801 H         1 <1>         0.0238 
     38 H16        -2.3663    8.3905   -8.7478 H         1 <1>         0.0238 
     39 H17        -3.9270   10.1176   -7.3443 H         1 <1>         0.0299 
     40 H18        -4.4728   11.6849   -4.2109 H         1 <1>         0.0539 
     41 H19        -6.6711   12.5148   -3.4199 H         1 <1>         0.0599 
     42 H20        -8.6419   10.2211   -6.4708 H         1 <1>         0.0599 
     43 H21        -6.4462    9.3583   -7.2461 H         1 <1>         0.0539 
@<TRIPOS>BOND
     1    2    1 1    
     2    2    3 1    
     3    3    4 2    
     4    3    5 1    
     5    5    6 1    
     6    6    7 2    
     7    4    7 1    
     8    5    8 1    
     9    8    9 1    
    10    9   10 1    
    11    9   11 1    
    12   11   12 1    
    13   11   13 1    
    14   11   14 1    
    15    8   15 2    
    16   15   16 1    
    17   16   17 ar   
    18   17   18 ar   
    19   18   19 ar   
    20   19   20 ar   
    21   20   21 ar   
    22   16   21 ar   
    23   19   22 1    
    24    1   23 1    
    25    2   24 1    
    26    2   25 1    
    27    4   26 1    
    28    6   27 1    
    29    9   28 1    
    30   10   29 1    
    31   12   30 1    
    32   12   31 1    
    33   12   32 1    
    34   13   33 1    
    35   13   34 1    
    36   13   35 1    
    37   14   36 1    
    38   14   37 1    
    39   14   38 1    
    40   15   39 1    
    41   17   40 1    
    42   18   41 1    
    43   20   42 1    
    44   21   43 1    
@<TRIPOS>SUBSTRUCTURE
     1 ****        2 TEMP              0 ****  ****    0 ROOT 
@<TRIPOS>NORMAL
@<TRIPOS>FF_PBC
FORCE_FIELD_SETUP_FEATURE Force Field Setup information
v1.0  0 0.000000 0.000000 0.000000 0.000000 0.000000 0.000000 NONE 0 0 0 0 1 0 0 0 0 0 0 0 0
