#	Name:			PISM00305.1
#	Creating user name:	malab
#	Creation time:		Fri Apr 05 16:46:34 2019

#	Modifying user name:	malab
#	Modification time:	Fri Apr 05 16:47:21 2019

@<TRIPOS>MOLECULE
PISM00305.1
   40    42     1     1     0
SMALL
GAST_HUCK


@<TRIPOS>ATOM
      1 C1         -9.7553   17.1684   45.9384 C.ar      1 <1>        -0.0371 
      2 C2        -10.7973   17.6311   46.7511 C.ar      1 <1>         0.0840 
      3 C3        -10.6643   17.5602   48.1403 C.ar      1 <1>        -0.0288 
      4 C4         -9.5043   17.0383   48.7235 C.ar      1 <1>        -0.0382 
      5 C5         -8.4657   16.5735   47.9083 C.ar      1 <1>        -0.0095 
      6 C6         -8.5971   16.6420   46.5168 C.ar      1 <1>        -0.0649 
      7 O7        -11.9693   18.1629   46.2027 O.3       1 <1>        -0.3329 
      8 C8         -9.3704   16.9754   50.2491 C.3       1 <1>        -0.0148 
      9 C9         -7.8900   17.1468   50.6779 C.3       1 <1>        -0.0229 
     10 C10        -7.0294   16.0310   50.0278 C.3       1 <1>        -0.0027 
     11 C11        -7.2092   15.9995   48.5284 C.2       1 <1>         0.0364 
     12 C12        -7.3588   18.5608   50.3084 C.3       1 <1>        -0.0586 
     13 N13        -6.3261   15.4861   47.7650 N.2       1 <1>        -0.2218 
     14 N14        -5.2012   14.8800   48.2118 N.pl3     1 <1>        -0.1967 
     15 C15        -4.0865   15.0460   47.5538 C.2       1 <1>         0.2358 
     16 O16        -4.0597   15.7380   46.5482 O.2       1 <1>        -0.3677 
     17 C17        -2.7857   14.3969   47.9853 C.ar      1 <1>         0.0541 
     18 C18        -2.5079   14.1133   49.3288 C.ar      1 <1>        -0.0454 
     19 C19        -1.3225   13.4640   49.6869 C.ar      1 <1>        -0.0579 
     20 C20        -0.3828   13.1299   48.7084 C.ar      1 <1>        -0.0238 
     21 C21        -0.6334   13.4477   47.3718 C.ar      1 <1>         0.1379 
     22 C22        -1.8289   14.0769   47.0144 C.ar      1 <1>        -0.0079 
     23 F23         0.2670   13.1492   46.4376 F         1 <1>        -0.1823 
     24 H1         -9.8364   17.2139   44.8569 H         1 <1>         0.0498 
     25 H2        -11.4766   17.9154   48.7656 H         1 <1>         0.0485 
     26 H3         -7.7989   16.2872   45.8728 H         1 <1>         0.0589 
     27 H4        -11.9868   18.1765   45.2523 H         1 <1>         0.2493 
     28 H5         -9.7512   15.9963   50.5803 H         1 <1>         0.0439 
     29 H6         -9.9803   17.7600   50.7250 H         1 <1>         0.0439 
     30 H7         -7.8288   17.0423   51.7764 H         1 <1>         0.0344 
     31 H8         -7.3307   15.0491   50.4260 H         1 <1>         0.0444 
     32 H9         -5.9752   16.2073   50.2946 H         1 <1>         0.0444 
     33 H10        -7.9775   19.3362   50.7865 H         1 <1>         0.0236 
     34 H11        -7.3747   18.7266   49.2211 H         1 <1>         0.0236 
     35 H12        -6.3229   18.6827   50.6612 H         1 <1>         0.0236 
     36 H13        -5.2411   14.2613   49.0347 H         1 <1>         0.2225 
     37 H14        -3.1996   14.4009   50.1127 H         1 <1>         0.0635 
     38 H15        -1.1294   13.2210   50.7274 H         1 <1>         0.0619 
     39 H16         0.5388   12.6270   48.9829 H         1 <1>         0.0640 
     40 H17        -2.0073   14.3105   45.9701 H         1 <1>         0.0656 
@<TRIPOS>BOND
     1    2    1 ar   
     2    2    3 ar   
     3    3    4 ar   
     4    4    5 ar   
     5    5    6 ar   
     6    1    6 ar   
     7    2    7 1    
     8    4    8 1    
     9    8    9 1    
    10    9   10 1    
    11   10   11 1    
    12    5   11 1    
    13    9   12 1    
    14   11   13 2    
    15   13   14 1    
    16   14   15 1    
    17   15   16 2    
    18   15   17 1    
    19   17   18 ar   
    20   18   19 ar   
    21   19   20 ar   
    22   20   21 ar   
    23   21   22 ar   
    24   17   22 ar   
    25   21   23 1    
    26    1   24 1    
    27    3   25 1    
    28    6   26 1    
    29    7   27 1    
    30    8   28 1    
    31    8   29 1    
    32    9   30 1    
    33   10   31 1    
    34   10   32 1    
    35   12   33 1    
    36   12   34 1    
    37   12   35 1    
    38   14   36 1    
    39   18   37 1    
    40   19   38 1    
    41   20   39 1    
    42   22   40 1    
@<TRIPOS>SUBSTRUCTURE
     1 ****        2 TEMP              0 ****  ****    0 ROOT 
@<TRIPOS>NORMAL
@<TRIPOS>FF_PBC
FORCE_FIELD_SETUP_FEATURE Force Field Setup information
v1.0  0 0.000000 0.000000 0.000000 0.000000 0.000000 0.000000 NONE 0 0 0 0 0 0 0 0 0 0 0 0 0
