#	Name:			PISM00089
#	Creating user name:	baoopengkun
#	Creation time:		Thu Dec 27 16:35:58 2018

#	Modifying user name:	baoopengkun
#	Modification time:	Thu Dec 27 16:36:55 2018

@<TRIPOS>MOLECULE
PISM00089
   21    22     1     1     0
SMALL
GAST_HUCK


@<TRIPOS>ATOM
      1 O1          0.1322    5.8010  -19.2944 O.2       1 <1>        -0.3721 
      2 C2         -0.1857    5.5048  -18.1543 C.2       1 <1>         0.1481 
      3 C3         -1.3609    4.6478  -17.9262 C.2       1 <1>         0.0048 
      4 C4         -1.7544    4.2925  -16.6955 C.2       1 <1>         0.0306 
      5 C5         -0.9987    4.7653  -15.5178 C.2       1 <1>         0.1781 
      6 O6         -1.3629    4.4358  -14.4005 O.2       1 <1>        -0.3519 
      7 C7          0.2170    5.6493  -15.6877 C.ar      1 <1>         0.0537 
      8 C8          0.6169    6.0103  -16.9772 C.ar      1 <1>         0.0470 
      9 C9          1.7396    6.8239  -17.1612 C.ar      1 <1>        -0.0393 
     10 C10         2.4625    7.2785  -16.0545 C.ar      1 <1>        -0.0523 
     11 C11         2.0621    6.9200  -14.7640 C.ar      1 <1>        -0.0523 
     12 C12         0.9403    6.1061  -14.5807 C.ar      1 <1>        -0.0386 
     13 C13        -2.9632    3.4137  -16.4718 C.3       1 <1>        -0.0156 
     14 H1         -1.9022    4.3113  -18.8104 H         1 <1>         0.0589 
     15 H2          2.0514    7.1035  -18.1629 H         1 <1>         0.0681 
     16 H3          3.3345    7.9097  -16.1974 H         1 <1>         0.0662 
     17 H4          2.6227    7.2739  -13.9038 H         1 <1>         0.0662 
     18 H5          0.6329    5.8301  -13.5768 H         1 <1>         0.0682 
     19 H6         -3.5150    3.1978  -17.3992 H         1 <1>         0.0440 
     20 H7         -3.6502    3.9101  -15.7698 H         1 <1>         0.0440 
     21 H8         -2.6362    2.4605  -16.0299 H         1 <1>         0.0440 
@<TRIPOS>BOND
     1    2    1 2    
     2    2    3 1    
     3    3    4 2    
     4    4    5 1    
     5    5    6 2    
     6    5    7 1    
     7    7    8 ar   
     8    2    8 1    
     9    8    9 ar   
    10    9   10 ar   
    11   10   11 ar   
    12   11   12 ar   
    13    7   12 ar   
    14    4   13 1    
    15    3   14 1    
    16    9   15 1    
    17   10   16 1    
    18   11   17 1    
    19   12   18 1    
    20   13   19 1    
    21   13   20 1    
    22   13   21 1    
@<TRIPOS>SUBSTRUCTURE
     1 ****        2 TEMP              0 ****  ****    0 ROOT 
@<TRIPOS>NORMAL
@<TRIPOS>FF_PBC
FORCE_FIELD_SETUP_FEATURE Force Field Setup information
v1.0  0 0.000000 0.000000 0.000000 0.000000 0.000000 0.000000 NONE 0 0 0 0 1 0 0 0 0 0 0 0 0
