#	Name:			PISM00250
#	Creating user name:	14062
#	Creation time:		Mon Apr 01 21:00:23 2019

#	Modifying user name:	14062
#	Modification time:	Mon Apr 01 21:01:03 2019

@<TRIPOS>MOLECULE
PISM00250
   55    57     1     2     0
SMALL
GAST_HUCK


@<TRIPOS>ATOM
      1 N1          0.9291    4.0560    8.4966 N.pl3     1 <1>        -0.2884 
      2 C2          2.1452    4.6163    8.3447 C.ar      1 <1>         0.0606 
      3 C3          2.0593    5.6672    7.4523 C.ar      1 <1>        -0.0191 
      4 C4          3.1674    6.4377    7.1028 C.ar      1 <1>        -0.0746 
      5 C5          4.3867    6.0968    7.7023 C.ar      1 <1>        -0.0792 
      6 C6          4.4782    5.0277    8.6081 C.ar      1 <1>        -0.0767 
      7 C7          0.5974    5.6614    7.0834 C.2       1 <1>        -0.0231 
      8 C8          0.0237    4.6568    7.7670 C.2       1 <1>         0.0195 
      9 C9          3.3528    4.2651    8.9473 C.ar      1 <1>        -0.0442 
     10 C10        -0.0675    6.6204    6.1294 C.3       1 <1>         0.0762 
     11 C11         0.3180    8.0241    6.5515 C.2       1 <1>         0.2395 
     12 O12         0.9560    8.7638    5.8226 O.2       1 <1>        -0.3687 
     13 O13        -0.0437    8.4649    7.7609 O.3       1 <1>        -0.2917 
     14 C14         0.3298    6.2686    4.6669 C.3       1 <1>        -0.0277 
     15 C15        -0.4798    7.0988    3.6298 C.3       1 <1>        -0.0478 
     16 C16        -0.1322    6.7139    2.1648 C.3       1 <1>        -0.0325 
     17 C17        -0.9321    7.5770    1.1509 C.3       1 <1>         0.0310 
     18 N18        -0.6954    7.1426   -0.2247 N.am      1 <1>        -0.2851 
     19 C19        -1.6610    7.2584   -1.1643 C.2       1 <1>         0.2019 
     20 C20        -1.3967    6.7824   -2.5829 C.3       1 <1>         0.1335 
     21 O21        -2.7588    7.7179   -0.8892 O.2       1 <1>        -0.3945 
     22 H1          0.7385    3.2518    9.1138 H         1 <1>         0.2219 
     23 H2          3.0881    7.2613    6.4020 H         1 <1>         0.0540 
     24 H3          5.2755    6.6715    7.4613 H         1 <1>         0.0510 
     25 H4          5.4381    4.7867    9.0544 H         1 <1>         0.0530 
     26 H5         -1.0329    4.3877    7.7197 H         1 <1>         0.0804 
     27 H6          3.4127    3.4384    9.6466 H         1 <1>         0.0541 
     28 H7         -1.1605    6.5213    6.2237 H         1 <1>         0.0635 
     29 H8         -0.5172    7.8333    8.2881 H         1 <1>         0.2540 
     30 H9          0.1245    5.1984    4.4952 H         1 <1>         0.0307 
     31 H10         1.4103    6.4334    4.5243 H         1 <1>         0.0307 
     32 H11        -0.2770    8.1723    3.7651 H         1 <1>         0.0269 
     33 H12        -1.5562    6.9314    3.7995 H         1 <1>         0.0269 
     34 H13        -0.3758    5.6525    1.9960 H         1 <1>         0.0285 
     35 H14         0.9471    6.8527    1.9897 H         1 <1>         0.0285 
     36 H15        -0.6340    8.6337    1.2439 H         1 <1>         0.0520 
     37 H16        -2.0015    7.5012    1.4086 H         1 <1>         0.0520 
     38 H17         0.2172    6.8118   -0.4842 H         1 <1>         0.1851 
     39 C39        -2.6306    6.9755   -3.5067 C.3       1 <1>        -0.0104 
     40 N40        -0.3958    7.5059   -3.3689 N.am      1 <1>        -0.2520 
     41 H20        -1.1166    5.7169   -2.5525 H         1 <1>         0.0802 
     42 C42        -0.7821    7.9699   -4.6965 C.3       1 <1>         0.0369 
     43 C43        -2.0201    7.0720   -4.9219 C.3       1 <1>        -0.0281 
     44 C44         0.8651    7.6692   -2.8985 C.2       1 <1>         0.1776 
     45 C45         1.8944    8.4529   -3.6737 C.3       1 <1>         0.0260 
     46 O46         1.2160    7.1692   -1.8418 O.2       1 <1>        -0.3970 
     47 H18        -3.1205    7.9422   -3.3017 H         1 <1>         0.0313 
     48 H19        -3.3755    6.1691   -3.4033 H         1 <1>         0.0313 
     49 H21        -0.0317    7.7980   -5.4851 H         1 <1>         0.0524 
     50 H22        -1.0617    9.0352   -4.6607 H         1 <1>         0.0524 
     51 H23        -1.6974    6.0649   -5.2357 H         1 <1>         0.0287 
     52 H24        -2.7158    7.4781   -5.6752 H         1 <1>         0.0287 
     53 H25         2.7488    8.7020   -3.0252 H         1 <1>         0.0467 
     54 H26         1.4651    9.3938   -4.0486 H         1 <1>         0.0467 
     55 H27         2.2627    7.8510   -4.5180 H         1 <1>         0.0467 
@<TRIPOS>BOND
     1    8    1 1    
     2    1    2 1    
     3    2    3 ar   
     4    3    7 1    
     5    3    4 ar   
     6    4    5 ar   
     7    5    6 ar   
     8    7    8 2    
     9    6    9 ar   
    10    2    9 ar   
    11    7   10 1    
    12   10   11 1    
    13   11   12 2    
    14   11   13 1    
    15   10   14 1    
    16   14   15 1    
    17   15   16 1    
    18   16   17 1    
    19   17   18 1    
    20   18   19 am   
    21   19   20 1    
    22   19   21 2    
    23    1   22 1    
    24    4   23 1    
    25    5   24 1    
    26    6   25 1    
    27    8   26 1    
    28    9   27 1    
    29   10   28 1    
    30   13   29 1    
    31   14   30 1    
    32   14   31 1    
    33   15   32 1    
    34   15   33 1    
    35   16   34 1    
    36   16   35 1    
    37   17   36 1    
    38   17   37 1    
    39   18   38 1    
    40   20   39 1    
    41   20   40 1    
    42   20   41 1    
    43   40   42 1    
    44   42   43 1    
    45   39   43 1    
    46   40   44 am   
    47   44   45 1    
    48   44   46 2    
    49   39   47 1    
    50   39   48 1    
    51   42   49 1    
    52   42   50 1    
    53   43   51 1    
    54   43   52 1    
    55   45   53 1    
    56   45   54 1    
    57   45   55 1    
@<TRIPOS>SUBSTRUCTURE
     1 ****        7 TEMP              0 ****  ****    0 ROOT 
@<TRIPOS>NORMAL
@<TRIPOS>FF_PBC
FORCE_FIELD_SETUP_FEATURE Force Field Setup information
v1.0  0 0.000000 0.000000 0.000000 0.000000 0.000000 0.000000 NONE 0 0 0 0 1 0 0 0 0 0 0 0 0
@<TRIPOS>RENDERING_ATTRS
ANTIALIASED_LINES 
1,2,3,4,5,6,7,8,9,10,11,12,13,15,16,17,18,19,20,21
