#	Name:			PISM00405
#	Creating user name:	baoopengkun
#	Creation time:		Sun Mar 31 17:28:59 2019

#	Modifying user name:	baoopengkun
#	Modification time:	Sun Mar 31 17:32:08 2019

@<TRIPOS>MOLECULE
PISM00405
   42    42     1     1     0
SMALL
GAST_HUCK


@<TRIPOS>ATOM
      1 C1         -2.7334    4.8607   -4.1965 C.3       1 <1>        -0.0521 
      2 C2         -1.2487    5.3179   -4.0463 C.3       1 <1>        -0.0585 
      3 C3         -0.8378    6.4045   -5.0744 C.3       1 <1>        -0.0546 
      4 C4         -1.0300    5.8703   -6.5163 C.3       1 <1>        -0.0611 
      5 C5         -2.5091    5.4728   -6.7855 C.3       1 <1>        -0.0612 
      6 C6         -2.9918    4.4453   -5.6937 C.3       1 <1>         0.0242 
      7 C7         -3.6980    5.9587   -3.6409 C.3       1 <1>        -0.0705 
      8 C8         -2.9464    3.6197   -3.2657 C.3       1 <1>        -0.0705 
      9 C9         -4.4538    4.0825   -5.8658 C.2       1 <1>        -0.0718 
     10 C10        -3.3825    6.7271   -7.1054 C.3       1 <1>        -0.0731 
     11 C11        -4.9188    2.8303   -5.9610 C.2       1 <1>        -0.0019 
     12 C12        -6.3606    2.5721   -6.1234 C.2       1 <1>         0.0411 
     13 C13        -7.2410    2.6229   -4.8984 C.3       1 <1>        -0.0093 
     14 C14        -6.8818    2.3063   -7.3294 C.2       1 <1>         0.0801 
     15 C15        -6.1202    2.2368   -8.5902 C.2       1 <1>         0.2880 
     16 O16        -4.9021    2.3037   -8.5816 O.2       1 <1>        -0.3368 
     17 O17        -6.7743    2.0994   -9.7441 O.3       1 <1>        -0.2892 
     18 O18        -2.1894    3.2584   -5.8898 O.3       1 <1>        -0.4543 
     19 H1         -0.5843    4.4508   -4.1938 H         1 <1>         0.0258 
     20 H2         -1.0692    5.6971   -3.0273 H         1 <1>         0.0258 
     21 H3          0.2273    6.6525   -4.9251 H         1 <1>         0.0265 
     22 H4         -1.4118    7.3298   -4.9216 H         1 <1>         0.0265 
     23 H5         -0.3853    4.9851   -6.6478 H         1 <1>         0.0256 
     24 H6         -0.6943    6.6297   -7.2412 H         1 <1>         0.0256 
     25 H7         -2.5239    4.9374   -7.7524 H         1 <1>         0.0156 
     26 H8         -3.4595    6.1746   -2.5880 H         1 <1>         0.0223 
     27 H9         -4.7460    5.6277   -3.6700 H         1 <1>         0.0223 
     28 H10        -3.6310    6.9098   -4.1706 H         1 <1>         0.0223 
     29 H11        -2.2857    2.7810   -3.5312 H         1 <1>         0.0223 
     30 H12        -2.7336    3.8774   -2.2168 H         1 <1>         0.0223 
     31 H13        -3.9843    3.2595   -3.3196 H         1 <1>         0.0223 
     32 H14        -5.1973    4.8751   -5.9042 H         1 <1>         0.0563 
     33 H15        -2.9614    7.2472   -7.9812 H         1 <1>         0.0220 
     34 H16        -3.4125    7.4654   -6.2999 H         1 <1>         0.0220 
     35 H17        -4.4130    6.4555   -7.3731 H         1 <1>         0.0220 
     36 H18        -4.2646    1.9613   -5.9215 H         1 <1>         0.1247 
     37 H19        -7.8369    1.7008   -4.8160 H         1 <1>         0.0431 
     38 H20        -7.9197    3.4865   -4.9669 H         1 <1>         0.0431 
     39 H21        -6.6365    2.7269   -3.9841 H         1 <1>         0.0431 
     40 H22        -7.9524    2.1288   -7.4211 H         1 <1>         0.1129 
     41 H23        -6.1794    2.0764  -10.4867 H         1 <1>         0.2521 
     42 H24        -2.2272    2.8854   -6.7651 H         1 <1>         0.1854 
@<TRIPOS>BOND
     1    2    1 1    
     2    2    3 1    
     3    3    4 1    
     4    4    5 1    
     5    5    6 1    
     6    1    6 1    
     7    1    7 1    
     8    1    8 1    
     9    6    9 1    
    10    5   10 1    
    11    9   11 2    
    12   11   12 1    
    13   12   13 1    
    14   12   14 2    
    15   14   15 1    
    16   15   16 2    
    17   15   17 1    
    18    6   18 1    
    19    2   19 1    
    20    2   20 1    
    21    3   21 1    
    22    3   22 1    
    23    4   23 1    
    24    4   24 1    
    25    5   25 1    
    26    7   26 1    
    27    7   27 1    
    28    7   28 1    
    29    8   29 1    
    30    8   30 1    
    31    8   31 1    
    32    9   32 1    
    33   10   33 1    
    34   10   34 1    
    35   10   35 1    
    36   11   36 1    
    37   13   37 1    
    38   13   38 1    
    39   13   39 1    
    40   14   40 1    
    41   17   41 1    
    42   18   42 1    
@<TRIPOS>SUBSTRUCTURE
     1 ****        2 TEMP              0 ****  ****    0 ROOT 
@<TRIPOS>NORMAL
@<TRIPOS>FF_PBC
FORCE_FIELD_SETUP_FEATURE Force Field Setup information
v1.0  0 0.000000 0.000000 0.000000 0.000000 0.000000 0.000000 NONE 0 0 0 0 1 0 0 0 0 0 0 0 0
