#	Name:			PISM00162
#	Creating user name:	14062
#	Creation time:		Fri Jul 12 12:54:30 2019

#	Modifying user name:	14062
#	Modification time:	Fri Jul 12 12:58:23 2019

@<TRIPOS>MOLECULE
PISM00162
  145   149     1     2     0
SMALL
GAST_HUCK


@<TRIPOS>ATOM
      1 C1         -2.1576   -6.3937  -11.1783 C.3       1 <1>         0.0879 
      2 C2         -0.8689   -7.2064  -10.8032 C.3       1 <1>         0.1137 
      3 C3         -1.0294   -8.1819   -9.5926 C.3       1 <1>         0.0864 
      4 C4          0.2286   -9.0556   -9.2767 C.3       1 <1>        -0.0151 
      5 C5         -0.0057   -9.8166   -7.9311 C.3       1 <1>        -0.0465 
      6 C6          1.0045  -10.9629   -7.6456 C.3       1 <1>        -0.0461 
      7 C7          0.6398  -11.7173   -6.3379 C.3       1 <1>        -0.0364 
      8 C8          0.8102  -10.8307   -5.1248 C.2       1 <1>        -0.0983 
      9 C9         -0.1889  -10.5059   -4.2921 C.2       1 <1>        -0.0931 
     10 C10         0.0210   -9.6631   -3.0485 C.3       1 <1>         0.0024 
     11 C11         0.0280  -10.6238   -1.8342 C.3       1 <1>        -0.0340 
     12 C12         0.3951   -9.8477   -0.5383 C.3       1 <1>         0.0090 
     13 C13        -0.0049   -8.3477   -0.6515 C.3       1 <1>         0.1594 
     14 O14        -1.2005   -8.1595   -1.4348 O.3       1 <1>        -0.3459 
     15 C15        -1.1046   -8.6077   -2.8050 C.3       1 <1>         0.0731 
     16 C16        -1.1594   -7.4532   -3.8574 C.3       1 <1>         0.0022 
     17 C17        -2.7600   -5.4665  -10.0635 C.3       1 <1>         0.0041 
     18 C18        -3.4575   -4.1819  -10.6584 C.3       1 <1>         0.0608 
     19 C19        -2.7516   -2.8708  -10.1804 C.3       1 <1>         0.0712 
     20 C20        -2.8131   -2.8883   -8.6663 C.2       1 <1>        -0.0297 
     21 C21        -1.7349   -2.9735   -7.8760 C.2       1 <1>         0.0834 
     22 C22        -1.8146   -3.1774   -6.4204 C.2       1 <1>         0.3219 
     23 O23        -0.7071   -3.0417   -5.6769 O.3       1 <1>        -0.2629 
     24 O24        -2.8941   -3.4902   -5.9484 O.2       1 <1>        -0.3129 
     25 O25        -0.1475   -7.7877  -11.9242 O.3       1 <1>        -0.3430 
     26 C26        -0.7888   -8.8735  -12.6240 C.3       1 <1>         0.1604 
     27 O27        -1.7613   -8.4530  -13.6038 O.3       1 <1>        -0.3468 
     28 C28         0.2704   -9.8176  -13.2495 C.3       1 <1>         0.0025 
     29 C29         1.0383   -9.1402  -14.4175 C.3       1 <1>        -0.0213 
     30 C30        -0.0362   -8.6200  -15.4271 C.3       1 <1>         0.0386 
     31 C31        -1.2177   -7.8173  -14.7869 C.3       1 <1>         0.0746 
     32 C32        -1.0377   -6.2875  -14.6113 C.3       1 <1>        -0.0371 
     33 C33         2.1046   -8.1398  -13.8795 C.3       1 <1>        -0.0608 
     34 N34         0.4661   -8.0498  -16.7127 N.3       1 <1>        -0.3027 
     35 C35         0.6801   -9.0080  -17.8283 C.3       1 <1>        -0.0127 
     36 C36         1.4181   -6.9124  -16.7432 C.3       1 <1>        -0.0127 
     37 O37        -2.1386   -9.0872   -9.7760 O.3       1 <1>        -0.3889 
     38 C38         1.5427   -8.2200   -9.2408 C.3       1 <1>        -0.0600 
     39 H1         -1.7757   -5.7120  -11.9527 H         1 <1>         0.0623 
     40 O40        -3.2303   -7.2043  -11.6967 O.3       1 <1>        -0.3888 
     41 C41        -3.7699   -6.1618   -9.0938 C.3       1 <1>        -0.0585 
     42 O42        -1.3899   -2.8933  -10.6524 O.3       1 <1>        -0.4295 
     43 O43        -3.5786   -4.1992  -12.0964 O.3       1 <1>        -0.3992 
     44 C44        -3.4816   -1.6151  -10.7311 C.3       1 <1>        -0.0633 
     45 C45        -0.5876   -3.8872   -4.5034 C.3       1 <1>         0.0972 
     46 C46         0.0498   -5.2701   -4.8362 C.3       1 <1>         0.0134 
     47 C47        -0.1229   -6.2993   -3.6593 C.3       1 <1>         0.0697 
     48 O48        -0.2391   -5.6152   -2.3772 O.3       1 <1>        -0.3448 
     49 C49        -1.3373   -4.6706   -2.2271 C.3       1 <1>         0.1733 
     50 C50        -1.8163   -4.0933   -3.5887 C.3       1 <1>         0.0323 
     51 C51        -0.3787   -5.8191   -6.2262 C.3       1 <1>        -0.0574 
     52 H2         -0.1507   -6.4372  -10.4723 H         1 <1>         0.0649 
     53 C53        -2.5581   -5.2345   -1.4350 C.3       1 <1>         0.0016 
     54 O54        -0.7234   -3.5154   -1.6042 O.3       1 <1>        -0.3452 
     55 C55        -0.8725   -3.3593   -0.1765 C.3       1 <1>         0.0643 
     56 C56        -1.0089   -4.7193    0.5437 C.3       1 <1>        -0.0262 
     57 C57        -2.2927   -5.4495    0.0835 C.3       1 <1>        -0.0458 
     58 C58        -1.9855   -2.3016    0.1006 C.3       1 <1>        -0.0004 
     59 C59        -2.1390   -1.7950    1.5718 C.3       1 <1>         0.0574 
     60 C60        -3.1673   -2.6025    2.4172 C.3       1 <1>        -0.0296 
     61 C61        -3.4136   -1.9418    3.8005 C.3       1 <1>        -0.0629 
     62 H3         -1.1914   -7.5696   -8.6928 H         1 <1>         0.0623 
     63 O63        -0.8789   -1.7789    2.2648 O.3       1 <1>        -0.3917 
     64 O64         1.0858   -7.6033   -1.2104 O.3       1 <1>        -0.3667 
     65 H4          0.3271   -9.8071  -10.0751 H         1 <1>         0.0324 
     66 H5         -1.0077  -10.2744   -7.9482 H         1 <1>         0.0270 
     67 C67        -0.2439  -10.5369    0.7001 C.3       1 <1>        -0.0577 
     68 H6          0.0180   -9.1027   -7.0954 H         1 <1>         0.0270 
     69 H7          2.0305  -10.5822   -7.5368 H         1 <1>         0.0285 
     70 H8          0.9893  -11.6735   -8.4885 H         1 <1>         0.0285 
     71 H9          1.3198  -12.5763   -6.2157 H         1 <1>         0.0388 
     72 H10        -0.3839  -12.1178   -6.4124 H         1 <1>         0.0388 
     73 H11         1.8170  -10.4574   -4.9317 H         1 <1>         0.0450 
     74 H12        -1.1936  -10.8774   -4.4953 H         1 <1>         0.0453 
     75 H13         1.0027   -9.1692   -3.0981 H         1 <1>         0.0448 
     76 H14         0.7421  -11.4501   -1.9910 H         1 <1>         0.0292 
     77 H15        -0.9774  -11.0671   -1.7458 H         1 <1>         0.0292 
     78 H16         1.4909   -9.8755   -0.4014 H         1 <1>         0.0348 
     79 H17        -0.1905   -7.9556    0.3630 H         1 <1>         0.0910 
     80 H18        -2.0551   -9.1563   -2.9243 H         1 <1>         0.0621 
     81 H19        -2.1731   -7.0391   -3.8893 H         1 <1>         0.0317 
     82 H20        -1.0040   -7.9571   -4.8214 H         1 <1>         0.0317 
     83 H21        -1.9025   -5.1592   -9.4466 H         1 <1>         0.0340 
     84 H22        -4.5013   -4.1039  -10.3036 H         1 <1>         0.0505 
     85 H23        -3.8033   -2.8707   -8.2091 H         1 <1>         0.0689 
     86 H24        -0.7252   -2.9402   -8.2769 H         1 <1>         0.1483 
     87 H25        -1.3415   -9.5163  -11.9252 H         1 <1>         0.0910 
     88 H26        -0.2507  -10.7122  -13.6320 H         1 <1>         0.0317 
     89 H27         0.9711  -10.1618  -12.4723 H         1 <1>         0.0317 
     90 H28         1.6237   -9.9296  -14.9241 H         1 <1>         0.0316 
     91 H29        -0.5542   -9.5540  -15.7132 H         1 <1>         0.0490 
     92 H30        -2.0539   -7.8748  -15.5086 H         1 <1>         0.0610 
     93 H31        -1.9872   -5.8543  -14.2627 H         1 <1>         0.0255 
     94 H32        -0.8153   -5.8055  -15.5744 H         1 <1>         0.0255 
     95 H33        -0.2550   -6.0354  -13.8881 H         1 <1>         0.0255 
     96 H34         2.6821   -8.6055  -13.0659 H         1 <1>         0.0233 
     97 H35         1.6648   -7.2196  -13.4828 H         1 <1>         0.0233 
     98 H36         2.8335   -7.8758  -14.6570 H         1 <1>         0.0233 
     99 H37         0.9638   -8.4864  -18.7560 H         1 <1>         0.0391 
    100 H38        -0.2393   -9.5737  -18.0425 H         1 <1>         0.0391 
    101 H39         1.4819   -9.7145  -17.5651 H         1 <1>         0.0391 
    102 H40         1.4371   -6.3238  -15.8187 H         1 <1>         0.0391 
    103 H41         1.1181   -6.2374  -17.5589 H         1 <1>         0.0391 
    104 H42         2.4409   -7.2638  -16.9500 H         1 <1>         0.0391 
    105 H43        -2.9471   -8.6710  -10.0586 H         1 <1>         0.2099 
    106 H44         1.7680   -7.7831  -10.2244 H         1 <1>         0.0233 
    107 H45         2.4106   -8.8388   -8.9787 H         1 <1>         0.0233 
    108 H46         1.4617   -7.4074   -8.5045 H         1 <1>         0.0233 
    109 H47        -2.9950   -7.6585  -12.5023 H         1 <1>         0.2099 
    110 H48        -3.3480   -6.9815   -8.5051 H         1 <1>         0.0234 
    111 H49        -4.6287   -6.5520   -9.6611 H         1 <1>         0.0234 
    112 H50        -4.1491   -5.4362   -8.3576 H         1 <1>         0.0234 
    113 H51        -0.9299   -2.0711  -10.5203 H         1 <1>         0.1931 
    114 H52        -4.0796   -4.9446  -12.4176 H         1 <1>         0.2086 
    115 H53        -3.0124   -0.7005  -10.3375 H         1 <1>         0.0141 
    116 H54        -4.5426   -1.6138  -10.4381 H         1 <1>         0.0141 
    117 H55        -3.4185   -1.5961  -11.8296 H         1 <1>         0.0141 
    118 H56         0.1422   -3.3210   -3.8979 H         1 <1>         0.0653 
    119 H57         1.1311   -5.0600   -4.9550 H         1 <1>         0.0352 
    120 H58         0.8339   -6.8454   -3.6334 H         1 <1>         0.0601 
    121 H59        -2.3305   -3.1320   -3.4263 H         1 <1>         0.0346 
    122 H60        -2.5289   -4.7894   -4.0484 H         1 <1>         0.0346 
    123 H61        -0.0993   -5.1257   -7.0325 H         1 <1>         0.0234 
    124 H62        -1.4649   -5.9902   -6.2712 H         1 <1>         0.0234 
    125 H63         0.1509   -6.7586   -6.4329 H         1 <1>         0.0234 
    126 H64        -2.9046   -6.1805   -1.8718 H         1 <1>         0.0317 
    127 H65        -3.3885   -4.5225   -1.5578 H         1 <1>         0.0317 
    128 H66         0.0848   -2.9124    0.1392 H         1 <1>         0.0598 
    129 H67        -0.9708   -4.6053    1.6368 H         1 <1>         0.0290 
    130 H68        -0.1291   -5.3160    0.2692 H         1 <1>         0.0290 
    131 H69        -3.1596   -5.0794    0.6550 H         1 <1>         0.0268 
    132 H70        -2.1965   -6.5199    0.3246 H         1 <1>         0.0268 
    133 H71        -2.9614   -2.6330   -0.2745 H         1 <1>         0.0315 
    134 H72        -1.6971   -1.4308   -0.5135 H         1 <1>         0.0315 
    135 H73        -2.5431   -0.7657    1.5360 H         1 <1>         0.0594 
    136 H74        -2.8110   -3.6238    2.5990 H         1 <1>         0.0287 
    137 H75        -4.1298   -2.6623    1.8832 H         1 <1>         0.0287 
    138 H76        -4.1381   -2.5353    4.3807 H         1 <1>         0.0231 
    139 H77        -3.8164   -0.9242    3.6810 H         1 <1>         0.0231 
    140 H78        -2.4739   -1.8837    4.3719 H         1 <1>         0.0231 
    141 H79        -0.2411   -1.1927    1.8695 H         1 <1>         0.2098 
    142 H80         0.8605   -6.6822   -1.3032 H         1 <1>         0.2125 
    143 H81         0.0370  -11.6014    0.7287 H         1 <1>         0.0234 
    144 H82        -1.3414  -10.4607    0.6541 H         1 <1>         0.0234 
    145 H83         0.1009  -10.0638    1.6328 H         1 <1>         0.0234 
@<TRIPOS>BOND
     1    2    1 1    
     2    2    3 1    
     3    3    4 1    
     4    4    5 1    
     5    5    6 1    
     6    6    7 1    
     7    7    8 1    
     8    8    9 2    
     9    9   10 1    
    10   10   11 1    
    11   11   12 1    
    12   12   13 1    
    13   13   14 1    
    14   14   15 1    
    15   10   15 1    
    16   15   16 1    
    17    1   17 1    
    18   17   18 1    
    19   18   19 1    
    20   19   20 1    
    21   20   21 2    
    22   21   22 1    
    23   22   23 1    
    24   22   24 2    
    25    2   25 1    
    26   25   26 1    
    27   26   27 1    
    28   26   28 1    
    29   28   29 1    
    30   29   30 1    
    31   30   31 1    
    32   27   31 1    
    33   31   32 1    
    34   29   33 1    
    35   30   34 1    
    36   34   35 1    
    37   34   36 1    
    38    3   37 1    
    39    4   38 1    
    40    1   39 1    
    41    1   40 1    
    42   17   41 1    
    43   18   43 1    
    44   19   42 1    
    45   19   44 1    
    46   23   45 1    
    47   45   46 1    
    48   46   47 1    
    49   47   48 1    
    50   48   49 1    
    51   49   50 1    
    52   45   50 1    
    53   16   47 1    
    54    2   52 1    
    55   46   51 1    
    56   49   53 1    
    57   49   54 1    
    58   54   55 1    
    59   55   56 1    
    60   56   57 1    
    61   53   57 1    
    62   55   58 1    
    63   58   59 1    
    64   59   60 1    
    65   60   61 1    
    66    3   62 1    
    67   59   63 1    
    68   13   64 1    
    69    4   65 1    
    70    5   66 1    
    71   12   67 1    
    72    5   68 1    
    73    6   69 1    
    74    6   70 1    
    75    7   71 1    
    76    7   72 1    
    77    8   73 1    
    78    9   74 1    
    79   10   75 1    
    80   11   76 1    
    81   11   77 1    
    82   12   78 1    
    83   13   79 1    
    84   15   80 1    
    85   16   81 1    
    86   16   82 1    
    87   17   83 1    
    88   18   84 1    
    89   20   85 1    
    90   21   86 1    
    91   26   87 1    
    92   28   88 1    
    93   28   89 1    
    94   29   90 1    
    95   30   91 1    
    96   31   92 1    
    97   32   93 1    
    98   32   94 1    
    99   32   95 1    
   100   33   96 1    
   101   33   97 1    
   102   33   98 1    
   103   35   99 1    
   104   35  100 1    
   105   35  101 1    
   106   36  102 1    
   107   36  103 1    
   108   36  104 1    
   109   37  105 1    
   110   38  106 1    
   111   38  107 1    
   112   38  108 1    
   113   40  109 1    
   114   41  110 1    
   115   41  111 1    
   116   41  112 1    
   117   42  113 1    
   118   43  114 1    
   119   44  115 1    
   120   44  116 1    
   121   44  117 1    
   122   45  118 1    
   123   46  119 1    
   124   47  120 1    
   125   50  121 1    
   126   50  122 1    
   127   51  123 1    
   128   51  124 1    
   129   51  125 1    
   130   53  126 1    
   131   53  127 1    
   132   55  128 1    
   133   56  129 1    
   134   56  130 1    
   135   57  131 1    
   136   57  132 1    
   137   58  133 1    
   138   58  134 1    
   139   59  135 1    
   140   60  136 1    
   141   60  137 1    
   142   61  138 1    
   143   61  139 1    
   144   61  140 1    
   145   63  141 1    
   146   64  142 1    
   147   67  143 1    
   148   67  144 1    
   149   67  145 1    
@<TRIPOS>SUBSTRUCTURE
     1 ****        2 TEMP              0 ****  ****    0 ROOT 
@<TRIPOS>NORMAL
@<TRIPOS>FF_PBC
FORCE_FIELD_SETUP_FEATURE Force Field Setup information
v1.0  0 0.000000 0.000000 0.000000 0.000000 0.000000 0.000000 NONE 0 0 0 0 1 0 0 0 0 0 0 0 0
@<TRIPOS>RENDERING_ATTRS
ANTIALIASED_LINES 
*
