#	Name:			PISM00831.1
#	Creating user name:	baoopengkun
#	Creation time:		Fri Nov 30 18:13:30 2018

#	Modifying user name:	baoopengkun
#	Modification time:	Fri Nov 30 18:17:57 2018

@<TRIPOS>MOLECULE
PISM00831.1
   35    38     1     2     0
SMALL
GAST_HUCK


@<TRIPOS>ATOM
      1 C1        -16.3699   -2.6484    4.7949 C.ar      1 <1>        -0.0639 
      2 C2        -17.6389   -2.8195    5.3596 C.ar      1 <1>        -0.0754 
      3 C3        -17.7984   -2.8711    6.7506 C.ar      1 <1>        -0.0755 
      4 C4        -16.6908   -2.7572    7.5984 C.ar      1 <1>        -0.0666 
      5 C5        -15.4288   -2.5928    7.0250 C.ar      1 <1>        -0.0356 
      6 C6        -15.2703   -2.5347    5.6475 C.ar      1 <1>        -0.0055 
      7 C7        -13.8154   -2.3339    5.2465 C.3       1 <1>         0.1326 
      8 C8        -13.1390   -1.9750    6.6149 C.3       1 <1>         0.0641 
      9 C9        -14.0985   -2.4568    7.7449 C.3       1 <1>        -0.0036 
     10 O10       -13.7629   -1.2149    4.3396 O.3       1 <1>        -0.2594 
     11 C11       -13.4609   -0.1687    5.0918 C.2       1 <1>         0.2795 
     12 C12       -13.0505   -0.4822    6.4546 C.2       1 <1>         0.1489 
     13 O13       -13.5024    0.9678    4.6512 O.2       1 <1>        -0.3569 
     14 N14       -12.6599    0.3886    7.2999 N.2       1 <1>        -0.1364 
     15 O15       -12.2625   -0.2860    8.4680 O.3       1 <1>        -0.1894 
     16 C16       -12.4920    0.5202    9.6292 C.3       1 <1>         0.2558 
     17 C17       -12.0587   -0.2603   10.8452 C.2       1 <1>         0.0007 
     18 C18       -11.0530    0.3576   11.4616 C.2       1 <1>         0.0293 
     19 C19       -10.8328    1.5477   10.6474 C.2       1 <1>         0.2496 
     20 O20       -11.6412    1.6844    9.6038 O.3       1 <1>        -0.2288 
     21 C21       -10.3073   -0.0711   12.6957 C.3       1 <1>        -0.0323 
     22 O22        -9.9697    2.3678   10.9081 O.2       1 <1>        -0.3691 
     23 H1        -16.2383   -2.6028    3.7188 H         1 <1>         0.0538 
     24 H2        -18.5066   -2.9123    4.7136 H         1 <1>         0.0541 
     25 H3        -18.7893   -3.0008    7.1750 H         1 <1>         0.0541 
     26 H4        -16.8063   -2.7962    8.6765 H         1 <1>         0.0537 
     27 H5        -13.4445   -3.2660    4.7915 H         1 <1>         0.0824 
     28 H6        -12.1179   -2.3779    6.7119 H         1 <1>         0.0540 
     29 H7        -14.1850   -1.7688    8.5977 H         1 <1>         0.0438 
     30 H8        -13.8090   -3.4563    8.1054 H         1 <1>         0.0438 
     31 H9        -13.5511    0.8164    9.7008 H         1 <1>         0.1229 
     32 H10       -12.5063   -1.2003   11.1653 H         1 <1>         0.0707 
     33 H11       -10.2405   -1.1685   12.7427 H         1 <1>         0.0347 
     34 H12       -10.8347    0.2971   13.5880 H         1 <1>         0.0347 
     35 H13        -9.2893    0.3466   12.6834 H         1 <1>         0.0347 
@<TRIPOS>BOND
     1    2    1 ar   
     2    2    3 ar   
     3    3    4 ar   
     4    4    5 ar   
     5    5    6 ar   
     6    1    6 ar   
     7    6    7 1    
     8    7    8 1    
     9    8    9 1    
    10    5    9 1    
    11    7   10 1    
    12   10   11 1    
    13   11   12 1    
    14    8   12 1    
    15   11   13 2    
    16   12   14 2    
    17   14   15 1    
    18   15   16 1    
    19   16   17 1    
    20   17   18 2    
    21   18   19 1    
    22   19   20 1    
    23   16   20 1    
    24   18   21 1    
    25   19   22 2    
    26    1   23 1    
    27    2   24 1    
    28    3   25 1    
    29    4   26 1    
    30    7   27 1    
    31    8   28 1    
    32    9   29 1    
    33    9   30 1    
    34   16   31 1    
    35   17   32 1    
    36   21   33 1    
    37   21   34 1    
    38   21   35 1    
@<TRIPOS>SUBSTRUCTURE
     1 ****        2 TEMP              0 ****  ****    0 ROOT 
@<TRIPOS>NORMAL
@<TRIPOS>FF_PBC
FORCE_FIELD_SETUP_FEATURE Force Field Setup information
v1.0  0 0.000000 0.000000 0.000000 0.000000 0.000000 0.000000 NONE 0 0 0 0 1 0 0 0 0 0 0 0 0
@<TRIPOS>RENDERING_ATTRS
ANTIALIASED_LINES 
*
