#	Name:			PISM00819
#	Creating user name:	baoopengkun
#	Creation time:		Fri Nov 30 17:33:02 2018

#	Modifying user name:	baoopengkun
#	Modification time:	Fri Nov 30 17:39:41 2018

@<TRIPOS>MOLECULE
PISM00819
   40    42     1     2     0
SMALL
GAST_HUCK


@<TRIPOS>ATOM
      1 C1          3.0102    0.5288   -3.0282 C.ar      1 <1>        -0.0175 
      2 C2          4.0619   -0.2311   -3.5618 C.ar      1 <1>        -0.0259 
      3 C3          5.3320    0.3380   -3.7115 C.ar      1 <1>        -0.0640 
      4 C4          5.5564    1.6653   -3.3409 C.ar      1 <1>        -0.0722 
      5 C5          4.4994    2.4366   -2.8548 C.ar      1 <1>        -0.0660 
      6 C6          3.2212    1.8827   -2.7256 C.ar      1 <1>        -0.0184 
      7 C7          3.8452   -1.5609   -3.9437 C.ar      1 <1>        -0.0575 
      8 C8          2.5908   -2.1503   -3.7709 C.ar      1 <1>        -0.0635 
      9 C9          1.5550   -1.4137   -3.1933 C.ar      1 <1>        -0.0631 
     10 C10         1.7710   -0.0882   -2.8072 C.ar      1 <1>        -0.0561 
     11 C11         2.0929    2.7824   -2.2658 C.2       1 <1>         0.0876 
     12 C12         0.8401    2.9524   -3.0420 C.2       1 <1>         0.2418 
     13 O13         0.7864    3.0487   -4.3837 O.3       1 <1>        -0.2861 
     14 C14         2.0296    3.0468   -5.1098 C.3       1 <1>         0.0639 
     15 O15        -0.2071    3.0358   -2.4225 O.2       1 <1>        -0.3759 
     16 C16         2.2166    3.4363   -1.1032 C.2       1 <1>         0.1096 
     17 O17         3.3287    3.2820   -0.3674 O.3       1 <1>        -0.2470 
     18 C18         3.3185    3.9845    0.8890 C.3       1 <1>         0.2466 
     19 C19         2.3012    3.3843    1.8343 C.2       1 <1>         0.0006 
     20 C20         2.9062    2.8254    2.8805 C.2       1 <1>         0.0294 
     21 C21         4.3207    3.0691    2.6260 C.2       1 <1>         0.2497 
     22 O22         4.5934    3.7436    1.5164 O.3       1 <1>        -0.2291 
     23 C23         2.2848    2.1029    4.0446 C.3       1 <1>        -0.0323 
     24 O24         5.1976    2.6886    3.3821 O.2       1 <1>        -0.3691 
     25 H1          6.1555   -0.2441   -4.1140 H         1 <1>         0.0535 
     26 H2          6.5485    2.0970   -3.4329 H         1 <1>         0.0590 
     27 H3          4.6776    3.4731   -2.5858 H         1 <1>         0.0523 
     28 H4          4.6485   -2.1485   -4.3776 H         1 <1>         0.0605 
     29 H5          2.4222   -3.1769   -4.0818 H         1 <1>         0.0613 
     30 H6          0.5822   -1.8726   -3.0435 H         1 <1>         0.0598 
     31 H7          0.9556    0.4424   -2.3292 H         1 <1>         0.0623 
     32 H8          1.7814    3.3209   -6.1456 H         1 <1>         0.0574 
     33 H9          2.4896    2.0494   -5.1447 H         1 <1>         0.0574 
     34 H10         2.7440    3.7923   -4.7270 H         1 <1>         0.0574 
     35 H11         1.3897    4.0799   -0.7912 H         1 <1>         0.1357 
     36 H12         3.1869    5.0733    0.7675 H         1 <1>         0.1229 
     37 H13         1.2220    3.3969    1.6870 H         1 <1>         0.0707 
     38 H14         1.3888    1.5522    3.7208 H         1 <1>         0.0347 
     39 H15         2.0009    2.8317    4.8181 H         1 <1>         0.0347 
     40 H16         3.0054    1.3894    4.4719 H         1 <1>         0.0347 
@<TRIPOS>BOND
     1    2    1 ar   
     2    2    3 ar   
     3    3    4 ar   
     4    4    5 ar   
     5    5    6 ar   
     6    1    6 ar   
     7    2    7 ar   
     8    7    8 ar   
     9    8    9 ar   
    10    9   10 ar   
    11    1   10 ar   
    12    6   11 1    
    13   11   12 1    
    14   12   13 1    
    15   13   14 1    
    16   12   15 2    
    17   11   16 2    
    18   16   17 1    
    19   17   18 1    
    20   18   19 1    
    21   19   20 2    
    22   20   21 1    
    23   21   22 1    
    24   18   22 1    
    25   20   23 1    
    26   21   24 2    
    27    3   25 1    
    28    4   26 1    
    29    5   27 1    
    30    7   28 1    
    31    8   29 1    
    32    9   30 1    
    33   10   31 1    
    34   14   32 1    
    35   14   33 1    
    36   14   34 1    
    37   16   35 1    
    38   18   36 1    
    39   19   37 1    
    40   23   38 1    
    41   23   39 1    
    42   23   40 1    
@<TRIPOS>SUBSTRUCTURE
     1 ****        2 TEMP              0 ****  ****    0 ROOT 
@<TRIPOS>NORMAL
@<TRIPOS>FF_PBC
FORCE_FIELD_SETUP_FEATURE Force Field Setup information
v1.0  0 0.000000 0.000000 0.000000 0.000000 0.000000 0.000000 NONE 0 0 0 0 1 0 0 0 0 0 0 0 0
@<TRIPOS>RENDERING_ATTRS
ANTIALIASED_LINES 
*
