#	Name:			PISM00261
#	Creating user name:	root
#	Creation time:		Wed Jun 26 13:44:32 2019

#	Modifying user name:	root
#	Modification time:	Wed Jun 26 13:45:35 2019

@<TRIPOS>MOLECULE
PISM00261
   39    40     1     1     0
SMALL
GAST_HUCK


@<TRIPOS>ATOM
      1 C1         -7.1157   -2.5623   -8.7193 C.ar      1 <1>        -0.0416 
      2 C2         -8.0577   -1.5375   -8.5924 C.ar      1 <1>        -0.0492 
      3 C3         -9.3947   -1.7590   -8.9408 C.ar      1 <1>        -0.0066 
      4 C4         -9.7557   -2.9835   -9.5115 C.ar      1 <1>        -0.0492 
      5 C5         -8.8079   -3.9996   -9.6652 C.ar      1 <1>        -0.0416 
      6 C6         -7.4862   -3.8022   -9.2513 C.ar      1 <1>         0.0601 
      7 N7         -9.6238   -0.0700   -6.6590 N.pl3     1 <1>        -0.1721 
      8 C8         -9.4815   -1.1848   -5.9932 C.2       1 <1>         0.2472 
      9 C9         -8.4753   -1.2046   -4.8755 C.3       1 <1>         0.1647 
     10 O10        -7.8376    0.0860   -4.8156 O.3       1 <1>        -0.3005 
     11 C11        -6.8692    0.1821   -3.8173 C.ar      1 <1>         0.0957 
     12 C12        -5.5698   -0.2655   -4.0706 C.ar      1 <1>        -0.0394 
     13 C13        -4.5965   -0.1960   -3.0704 C.ar      1 <1>        -0.0776 
     14 C14        -4.9265    0.3260   -1.8168 C.ar      1 <1>        -0.0797 
     15 C15        -6.2241    0.7829   -1.5679 C.ar      1 <1>        -0.0691 
     16 C16        -7.2000    0.7234   -2.5696 C.ar      1 <1>        -0.0165 
     17 O17       -10.1125   -2.2025   -6.2300 O.2       1 <1>        -0.3734 
     18 C18        -8.6169    1.2464   -2.3018 C.3       1 <1>        -0.0330 
     19 C19        -6.4690   -4.9167   -9.3791 C.2       1 <1>         0.2592 
     20 O20        -5.3190   -4.7381   -9.0085 O.2       1 <1>        -0.3581 
     21 O21        -6.8301   -6.0929   -9.8961 O.3       1 <1>        -0.2938 
     22 H1         -6.0914   -2.3889   -8.4040 H         1 <1>         0.0667 
     23 N23       -10.4846    0.0555   -7.6961 N.2       1 <1>        -0.1854 
     24 C24       -10.4600   -0.7052   -8.7185 C.2       1 <1>         0.0415 
     25 H2         -7.7390   -0.5669   -8.2284 H         1 <1>         0.0626 
     26 H3        -10.7794   -3.1511   -9.8314 H         1 <1>         0.0626 
     27 H4         -9.1061   -4.9455  -10.1063 H         1 <1>         0.0667 
     28 H5         -9.0699    0.7532   -6.3719 H         1 <1>         0.2349 
     29 H6         -8.9997   -1.4336   -3.9354 H         1 <1>         0.0865 
     30 H7         -7.7435   -1.9993   -5.0880 H         1 <1>         0.0865 
     31 H8         -5.3200   -0.6669   -5.0473 H         1 <1>         0.0521 
     32 H9         -3.5875   -0.5461   -3.2665 H         1 <1>         0.0531 
     33 H10        -4.1739    0.3768   -1.0357 H         1 <1>         0.0505 
     34 H11        -6.4699    1.1843   -0.5898 H         1 <1>         0.0526 
     35 H12        -9.0712    1.6403   -3.2235 H         1 <1>         0.0368 
     36 H13        -8.6010    2.0552   -1.5557 H         1 <1>         0.0368 
     37 H14        -9.2359    0.4210   -1.9206 H         1 <1>         0.0368 
     38 H15        -6.1015   -6.7036   -9.9203 H         1 <1>         0.2522 
     39 H16       -11.2521   -0.5862   -9.4561 H         1 <1>         0.0810 
@<TRIPOS>BOND
     1    2    1 ar   
     2    3    2 ar   
     3    3    4 ar   
     4    4    5 ar   
     5    5    6 ar   
     6    1    6 ar   
     7    7    8 1    
     8   23    7 1    
     9    9   10 1    
    10    8    9 1    
    11   10   11 1    
    12   11   12 ar   
    13   12   13 ar   
    14   13   14 ar   
    15   15   14 ar   
    16   16   15 ar   
    17   11   16 ar   
    18    8   17 2    
    19   16   18 1    
    20    6   19 1    
    21   19   20 2    
    22   19   21 1    
    23    1   22 1    
    24   24   23 2    
    25    3   24 1    
    26    2   25 1    
    27    4   26 1    
    28    5   27 1    
    29    7   28 1    
    30    9   29 1    
    31    9   30 1    
    32   12   31 1    
    33   13   32 1    
    34   14   33 1    
    35   15   34 1    
    36   18   35 1    
    37   18   36 1    
    38   18   37 1    
    39   21   38 1    
    40   24   39 1    
@<TRIPOS>SUBSTRUCTURE
     1 ****        3 TEMP              0 ****  ****    0 ROOT 
@<TRIPOS>NORMAL
@<TRIPOS>FF_PBC
FORCE_FIELD_SETUP_FEATURE Force Field Setup information
v1.0  0 0.000000 0.000000 0.000000 0.000000 0.000000 0.000000 NONE 0 0 0 0 1 0 0 0 0 0 0 0 0
