#	Name:			PISM00897
#	Creating user name:	baoopengkun
#	Creation time:		Fri Dec 14 10:03:55 2018

#	Modifying user name:	baoopengkun
#	Modification time:	Fri Dec 14 10:14:02 2018

@<TRIPOS>MOLECULE
PISM00897
   31    32     1     1     0
SMALL
GAST_HUCK


@<TRIPOS>ATOM
      1 C1         11.8048   14.7505   -3.5403 C.ar      1 <1>        -0.0398 
      2 C2         12.2207   16.0416   -3.8786 C.ar      1 <1>        -0.0722 
      3 C3         11.7123   17.1435   -3.1852 C.ar      1 <1>        -0.0740 
      4 C4         10.7925   16.9522   -2.1503 C.ar      1 <1>        -0.0722 
      5 C5         10.3894   15.6591   -1.8040 C.ar      1 <1>        -0.0398 
      6 C6         10.8948   14.5533   -2.4955 C.ar      1 <1>         0.0661 
      7 N7         10.4983   13.3021   -2.1542 N.pl3     1 <1>        -0.2037 
      8 C8         11.3815   12.3952   -1.8261 C.2       1 <1>         0.3530 
      9 O9         11.0294   11.2635   -1.5332 O.2       1 <1>        -0.3603 
     10 O10        12.6800   12.7325   -1.8157 O.3       1 <1>        -0.2086 
     11 C11        13.5692   11.6879   -1.3861 C.3       1 <1>         0.2428 
     12 C12        13.4938   10.4412   -2.2361 C.2       1 <1>        -0.0021 
     13 C13        13.2450    9.3816   -1.4679 C.2       1 <1>         0.0291 
     14 C14        13.1522    9.9396   -0.1222 C.2       1 <1>         0.2494 
     15 O15        13.3005   11.2568   -0.0366 O.3       1 <1>        -0.2314 
     16 C16        13.0864    7.9416   -1.8718 C.3       1 <1>        -0.0323 
     17 O17        12.9553    9.2459    0.8609 O.2       1 <1>        -0.3691 
     18 C18         9.0728   12.9667   -2.1538 C.3       1 <1>         0.0400 
     19 H1         12.1873   13.9002   -4.0957 H         1 <1>         0.0528 
     20 H2         12.9374   16.1887   -4.6809 H         1 <1>         0.0586 
     21 H3         12.0314   18.1470   -3.4502 H         1 <1>         0.0514 
     22 H4         10.3925   17.8077   -1.6144 H         1 <1>         0.0586 
     23 H5          9.6848   15.5141   -0.9916 H         1 <1>         0.0528 
     24 H6         14.5969   12.0829   -1.4239 H         1 <1>         0.1196 
     25 H7         13.6243   10.4222   -3.3172 H         1 <1>         0.0705 
     26 H8         13.1564    7.8263   -2.9639 H         1 <1>         0.0347 
     27 H9         12.1044    7.5771   -1.5354 H         1 <1>         0.0347 
     28 H10        13.8746    7.3401   -1.3952 H         1 <1>         0.0347 
     29 H11         8.7387   12.7956   -1.1186 H         1 <1>         0.0522 
     30 H12         8.8957   12.0511   -2.7400 H         1 <1>         0.0522 
     31 H13         8.4577   13.7686   -2.5920 H         1 <1>         0.0522 
@<TRIPOS>BOND
     1    1    2 ar   
     2    2    3 ar   
     3    4    3 ar   
     4    5    4 ar   
     5    6    5 ar   
     6    6    1 ar   
     7    7    8 1    
     8    6    7 1    
     9    8    9 2    
    10    8   10 1    
    11   10   11 1    
    12   11   12 1    
    13   12   13 2    
    14   14   13 1    
    15   15   14 1    
    16   11   15 1    
    17   13   16 1    
    18   14   17 2    
    19    7   18 1    
    20    1   19 1    
    21    2   20 1    
    22    3   21 1    
    23    4   22 1    
    24    5   23 1    
    25   11   24 1    
    26   12   25 1    
    27   16   26 1    
    28   16   27 1    
    29   16   28 1    
    30   18   29 1    
    31   18   30 1    
    32   18   31 1    
@<TRIPOS>SUBSTRUCTURE
     1 ****        2 TEMP              0 ****  ****    0 ROOT 
@<TRIPOS>NORMAL
@<TRIPOS>FF_PBC
FORCE_FIELD_SETUP_FEATURE Force Field Setup information
v1.0  0 0.000000 0.000000 0.000000 0.000000 0.000000 0.000000 NONE 0 0 0 0 1 0 0 0 0 0 0 0 0
