#	Name:			PISM00562
#	Creating user name:	malab
#	Creation time:		Thu Apr 04 22:10:52 2019

#	Modifying user name:	malab
#	Modification time:	Thu Apr 04 22:11:48 2019

@<TRIPOS>MOLECULE
PISM00562
   19    19     1     1     0
SMALL
USER_CHARGES


@<TRIPOS>ATOM
      1 O1         23.1948   13.2827   -1.0389 O.2       1 <1>         0.0000 
      2 C2         23.6539   12.9150   -2.1088 C.2       1 <1>         0.0000 
      3 N3         23.4192   13.6170   -3.2454 N.am      1 <1>         0.0000 
      4 C4         24.0292   13.2751   -4.5296 C.3       1 <1>         0.0000 
      5 C5         23.0734   12.5430   -5.3525 C.1       1 <1>         0.0000 
      6 N6         22.3143   11.9612   -6.0050 N.1       1 <1>         0.0000 
      7 C7         24.4952   11.6568   -2.0850 C.ar      1 <1>         0.0000 
      8 C8         25.5665   11.5620   -1.1922 C.ar      1 <1>         0.0000 
      9 C9         26.3634   10.4140   -1.1929 C.ar      1 <1>         0.0000 
     10 N10        26.1078    9.4057   -2.0517 N.ar      1 <1>         0.0000 
     11 C11        25.0643    9.4582   -2.9049 C.ar      1 <1>         0.0000 
     12 C12        24.2228   10.5740   -2.9265 C.ar      1 <1>         0.0000 
     13 Cl13       27.7054   10.2731   -0.0777 Cl        1 <1>         0.0000 
     14 H1         22.8151   14.4177   -3.2152 H         1 <1>         0.0000 
     15 H2         24.9552   12.6902   -4.4275 H         1 <1>         0.0000 
     16 H3         24.2846   14.1974   -5.0748 H         1 <1>         0.0000 
     17 H4         25.7821   12.3733   -0.5050 H         1 <1>         0.0000 
     18 H5         24.8824    8.6242   -3.5742 H         1 <1>         0.0000 
     19 H6         23.3625   10.5894   -3.5854 H         1 <1>         0.0000 
@<TRIPOS>BOND
     1    2    1 2    
     2    2    3 am   
     3    3    4 1    
     4    4    5 1    
     5    5    6 3    
     6    2    7 1    
     7    7    8 ar   
     8    8    9 ar   
     9    9   10 ar   
    10   10   11 ar   
    11   11   12 ar   
    12    7   12 ar   
    13    9   13 1    
    14    3   14 1    
    15    4   15 1    
    16    4   16 1    
    17    8   17 1    
    18   11   18 1    
    19   12   19 1    
@<TRIPOS>SUBSTRUCTURE
     1 ****        2 TEMP              0 ****  ****    0 ROOT 
@<TRIPOS>NORMAL
@<TRIPOS>FF_PBC
FORCE_FIELD_SETUP_FEATURE Force Field Setup information
v1.0  0 0.000000 0.000000 0.000000 0.000000 0.000000 0.000000 NONE 0 0 0 0 0 0 0 0 0 0 0 0 0
