#	Name:			PISM00013
#	Creating user name:	baoopengkun
#	Creation time:		Thu Nov 15 11:05:09 2018

#	Modifying user name:	baoopengkun
#	Modification time:	Thu Nov 15 11:08:03 2018

@<TRIPOS>MOLECULE
PISM00013
   29    30     1     2     0
SMALL
GAST_HUCK


@<TRIPOS>ATOM
      1 C1         -0.9260    6.9603    4.4229 C.ar      1 <1>        -0.0469 
      2 C2         -1.4914    5.8061    3.8708 C.ar      1 <1>        -0.0446 
      3 C3         -2.5901    5.9037    3.0073 C.ar      1 <1>         0.0798 
      4 C4         -3.1076    7.1676    2.7143 C.ar      1 <1>        -0.0446 
      5 C5         -2.5436    8.3201    3.2684 C.ar      1 <1>        -0.0469 
      6 C6         -1.4431    8.2287    4.1288 C.ar      1 <1>         0.1040 
      7 N7         -0.8923    9.3488    4.6641 N.pl3     1 <1>         0.0251 
      8 O8          0.0502    9.2767    5.4235 O.2       1 <1>        -0.1292 
      9 O9         -1.4066   10.6188    4.3588 O.3       1 <1>        -0.2417 
     10 O10        -3.1926    4.7809    2.4236 O.3       1 <1>        -0.3143 
     11 C11        -2.7294    3.4426    2.6676 C.3       1 <1>         0.1019 
     12 C12        -3.5968    2.4986    1.8246 C.ar      1 <1>         0.0008 
     13 C13        -3.5305    2.5585    0.4271 C.ar      1 <1>         0.0437 
     14 C14        -4.3093    1.6994   -0.3535 C.ar      1 <1>        -0.0545 
     15 C15        -5.1630    0.7762    0.2558 C.ar      1 <1>        -0.0682 
     16 C16        -5.2374    0.7160    1.6498 C.ar      1 <1>        -0.0683 
     17 C17        -4.4580    1.5750    2.4303 C.ar      1 <1>        -0.0572 
     18 Cl18       -2.4718    3.7095   -0.3665 Cl        1 <1>        -0.0771 
     19 H1         -0.0741    6.8581    5.0877 H         1 <1>         0.0486 
     20 H2         -1.0572    4.8482    4.1297 H         1 <1>         0.0509 
     21 H3         -3.9594    7.2484    2.0466 H         1 <1>         0.0509 
     22 H4         -2.9722    9.2857    3.0216 H         1 <1>         0.0486 
     23 H5         -0.7369   11.1546    3.9483 H         1 <1>         0.2517 
     24 H6         -2.8154    3.2035    3.7388 H         1 <1>         0.0775 
     25 H7         -1.6816    3.3208    2.3518 H         1 <1>         0.0775 
     26 H8         -4.2500    1.7510   -1.4359 H         1 <1>         0.0605 
     27 H9         -5.7664    0.1084   -0.3517 H         1 <1>         0.0559 
     28 H10        -5.9019    0.0013    2.1263 H         1 <1>         0.0601 
     29 H11        -4.5302    1.5172    3.5117 H         1 <1>         0.0557 
@<TRIPOS>BOND
     1    2    1 ar   
     2    2    3 ar   
     3    3    4 ar   
     4    4    5 ar   
     5    6    5 ar   
     6    1    6 ar   
     7    6    7 1    
     8    7    8 2    
     9    7    9 1    
    10    3   10 1    
    11   10   11 1    
    12   11   12 1    
    13   12   13 ar   
    14   13   14 ar   
    15   14   15 ar   
    16   16   15 ar   
    17   17   16 ar   
    18   12   17 ar   
    19   13   18 1    
    20    1   19 1    
    21    2   20 1    
    22    4   21 1    
    23    5   22 1    
    24    9   23 1    
    25   11   24 1    
    26   11   25 1    
    27   14   26 1    
    28   15   27 1    
    29   16   28 1    
    30   17   29 1    
@<TRIPOS>SUBSTRUCTURE
     1 ****        2 TEMP              0 ****  ****    0 ROOT 
@<TRIPOS>NORMAL
@<TRIPOS>FF_PBC
FORCE_FIELD_SETUP_FEATURE Force Field Setup information
v1.0  0 0.000000 0.000000 0.000000 0.000000 0.000000 0.000000 NONE 0 0 0 0 1 0 0 0 0 0 0 0 0
@<TRIPOS>RENDERING_ATTRS
BALL_AND_STICK  
*
