#	Name:			PISM01093
#	Creating user name:	14062
#	Creation time:		Sat Apr 06 21:16:41 2019

#	Modifying user name:	14062
#	Modification time:	Sat Apr 06 21:18:01 2019

@<TRIPOS>MOLECULE
PISM01093
   26    26     1     1     0
SMALL
GAST_HUCK


@<TRIPOS>ATOM
      1 C1        -12.7808    5.2876   -1.3079 C.ar      1 <1>        -0.0330 
      2 C2        -13.8507    6.1890   -1.2500 C.ar      1 <1>        -0.0376 
      3 C3        -13.6563    7.5482   -1.5099 C.ar      1 <1>         0.1099 
      4 C4        -12.3784    8.0286   -1.8180 C.ar      1 <1>         0.1088 
      5 C5        -11.3017    7.1360   -1.8719 C.ar      1 <1>        -0.0481 
      6 C6        -11.5059    5.7764   -1.6193 C.ar      1 <1>        -0.0776 
      7 O7        -12.2092    9.3954   -2.0673 O.3       1 <1>        -0.3414 
      8 O8        -14.7480    8.4190   -1.4596 O.3       1 <1>        -0.3385 
      9 C9        -12.9634    3.7809   -1.0440 C.3       1 <1>         0.0967 
     10 C10       -12.9544    2.9744   -2.3798 C.3       1 <1>         0.0367 
     11 C11       -14.0006    3.5064   -3.3989 C.3       1 <1>        -0.0458 
     12 H1        -14.8510    5.8545   -1.0058 H         1 <1>         0.0451 
     13 H2        -10.3036    7.4894   -2.1101 H         1 <1>         0.0492 
     14 H3        -10.6594    5.0985   -1.6683 H         1 <1>         0.0437 
     15 H4        -11.3070    9.6565   -2.2153 H         1 <1>         0.2420 
     16 H5        -14.4954    9.3154   -1.6594 H         1 <1>         0.2442 
     17 O17       -14.0819    3.4460   -0.2022 O.3       1 <1>        -0.3797 
     18 H7        -12.0983    3.4591   -0.4410 H         1 <1>         0.0750 
     19 N19       -13.2250    1.5428   -2.1138 N.3       1 <1>        -0.3239 
     20 H9        -11.9553    3.0820   -2.8407 H         1 <1>         0.0502 
     21 H10       -13.9287    2.9411   -4.3407 H         1 <1>         0.0247 
     22 H11       -13.8285    4.5685   -3.6300 H         1 <1>         0.0247 
     23 H12       -15.0223    3.3892   -3.0103 H         1 <1>         0.0247 
     24 H6        -14.9263    3.5470   -0.6242 H         1 <1>         0.2127 
     25 H8        -12.5359    1.1490   -1.3789 H         1 <1>         0.1187 
     26 H13       -13.1509    0.9585   -3.0213 H         1 <1>         0.1187 
@<TRIPOS>BOND
     1    2    1 ar   
     2    2    3 ar   
     3    3    4 ar   
     4    4    5 ar   
     5    5    6 ar   
     6    1    6 ar   
     7    4    7 1    
     8    3    8 1    
     9    1    9 1    
    10    9   10 1    
    11   10   11 1    
    12    2   12 1    
    13    5   13 1    
    14    6   14 1    
    15    7   15 1    
    16    8   16 1    
    17    9   17 1    
    18    9   18 1    
    19   10   19 1    
    20   10   20 1    
    21   11   21 1    
    22   11   22 1    
    23   11   23 1    
    24   17   24 1    
    25   19   25 1    
    26   19   26 1    
@<TRIPOS>SUBSTRUCTURE
     1 ****        2 TEMP              0 ****  ****    0 ROOT 
@<TRIPOS>NORMAL
@<TRIPOS>FF_PBC
FORCE_FIELD_SETUP_FEATURE Force Field Setup information
v1.0  0 0.000000 0.000000 0.000000 0.000000 0.000000 0.000000 NONE 0 0 0 0 1 0 0 0 0 0 0 0 0
