#	Name:			PISM00069
#	Creating user name:	baoopengkun
#	Creation time:		Thu Dec 27 11:33:00 2018

#	Modifying user name:	baoopengkun
#	Modification time:	Thu Dec 27 11:37:02 2018

@<TRIPOS>MOLECULE
PISM00069
   43    44     1     1     0
SMALL
GAST_HUCK


@<TRIPOS>ATOM
      1 C1        -13.7495   11.3639   -3.9226 C.3       1 <1>        -0.0475 
      2 C2        -13.1632   12.6700   -4.5201 C.3       1 <1>         0.0398 
      3 C3        -13.8047   13.9174   -3.9557 C.2       1 <1>         0.2002 
      4 O4        -14.6624   13.7935   -3.0972 O.2       1 <1>        -0.3795 
      5 N5        -13.4075   15.0805   -4.4025 N.pl3     1 <1>        -0.2421 
      6 C6        -13.9392   16.2446   -3.9531 C.ar      1 <1>         0.0515 
      7 C7        -15.3235   16.4110   -3.8235 C.ar      1 <1>        -0.0515 
      8 C8        -15.8475   17.6076   -3.3256 C.ar      1 <1>        -0.0815 
      9 C9        -14.9914   18.6573   -2.9822 C.ar      1 <1>        -0.0505 
     10 C10       -13.6102   18.5159   -3.1490 C.ar      1 <1>         0.0558 
     11 C11       -13.0914   17.3081   -3.6249 C.ar      1 <1>        -0.0179 
     12 N12       -12.7705   19.5330   -2.8410 N.pl3     1 <1>        -0.2370 
     13 C13       -12.8042   20.6797   -3.4757 C.2       1 <1>         0.1864 
     14 S14       -13.9296   20.8849   -4.7602 S.2       1 <1>        -0.2688 
     15 N15       -11.9535   21.6812   -3.1278 N.am      1 <1>        -0.1926 
     16 C16       -11.8701   22.9157   -3.6816 C.2       1 <1>         0.2370 
     17 O17       -12.6069   23.2954   -4.5746 O.2       1 <1>        -0.3732 
     18 C18       -10.8278   23.9053   -3.1975 C.ar      1 <1>         0.0587 
     19 C19        -9.5177   23.4679   -2.9658 C.ar      1 <1>        -0.0478 
     20 C20        -8.5441   24.3543   -2.4985 C.ar      1 <1>        -0.0630 
     21 C21        -8.8679   25.6979   -2.2992 C.ar      1 <1>        -0.0642 
     22 C22       -10.1666   26.1451   -2.5556 C.ar      1 <1>        -0.0546 
     23 C23       -11.1566   25.2527   -2.9859 C.ar      1 <1>        -0.0249 
     24 C24       -12.5887   25.7620   -3.2105 C.3       1 <1>        -0.0274 
     25 H1        -14.8286   11.3003   -4.1335 H         1 <1>         0.0255 
     26 H2        -13.6003   11.3428   -2.8315 H         1 <1>         0.0255 
     27 H3        -13.2527   10.4847   -4.3623 H         1 <1>         0.0255 
     28 H4        -13.3114   12.6631   -5.6117 H         1 <1>         0.0508 
     29 H5        -12.0822   12.7072   -4.3113 H         1 <1>         0.0508 
     30 H6        -12.6538   15.1240   -5.1039 H         1 <1>         0.2106 
     31 H7        -16.0020   15.6165   -4.1162 H         1 <1>         0.0435 
     32 H8        -16.9207   17.7226   -3.2069 H         1 <1>         0.0558 
     33 H9        -15.3992   19.5807   -2.5836 H         1 <1>         0.0436 
     34 H10       -12.0184   17.1974   -3.7386 H         1 <1>         0.0439 
     35 H11       -12.0828   19.3711   -2.0922 H         1 <1>         0.2183 
     36 H12       -11.3275   21.5118   -2.3718 H         1 <1>         0.2369 
     37 H13        -9.2400   22.4365   -3.1571 H         1 <1>         0.0651 
     38 H14        -7.5373   24.0018   -2.2945 H         1 <1>         0.0572 
     39 H39        -8.1115   26.3930   -1.9470 H         1 <1>         0.0635 
     40 H16       -10.3986   27.1962   -2.4153 H         1 <1>         0.0569 
     41 H15       -12.7703   25.8646   -4.2908 H         1 <1>         0.0405 
     42 H17       -12.7525   26.7405   -2.7348 H         1 <1>         0.0405 
     43 H18       -13.3177   25.0560   -2.7848 H         1 <1>         0.0405 
@<TRIPOS>BOND
     1    2    1 1    
     2    2    3 1    
     3    3    4 2    
     4    3    5 1    
     5    5    6 1    
     6    6    7 ar   
     7    7    8 ar   
     8    8    9 ar   
     9    9   10 ar   
    10   10   11 ar   
    11    6   11 ar   
    12   10   12 1    
    13   12   13 1    
    14   13   14 2    
    15   13   15 am   
    16   15   16 am   
    17   16   17 2    
    18   16   18 1    
    19   18   19 ar   
    20   19   20 ar   
    21   20   21 ar   
    22   21   22 ar   
    23   22   23 ar   
    24   18   23 ar   
    25   23   24 1    
    26    1   25 1    
    27    1   26 1    
    28    1   27 1    
    29    2   28 1    
    30    2   29 1    
    31    5   30 1    
    32    7   31 1    
    33    8   32 1    
    34    9   33 1    
    35   11   34 1    
    36   12   35 1    
    37   15   36 1    
    38   19   37 1    
    39   20   38 1    
    40   21   39 1    
    41   22   40 1    
    42   24   41 1    
    43   24   42 1    
    44   24   43 1    
@<TRIPOS>SUBSTRUCTURE
     1 ****        2 TEMP              0 ****  ****    0 ROOT 
@<TRIPOS>NORMAL
@<TRIPOS>FF_PBC
FORCE_FIELD_SETUP_FEATURE Force Field Setup information
v1.0  0 0.000000 0.000000 0.000000 0.000000 0.000000 0.000000 NONE 0 0 0 0 1 0 0 0 0 0 0 0 0
