#	Name:			PISM00736
#	Creating user name:	baoopengkun
#	Creation time:		Sun Jan 20 22:20:31 2019

#	Modifying user name:	baoopengkun
#	Modification time:	Sun Jan 20 22:22:46 2019

@<TRIPOS>MOLECULE
PISM00736
   85    88     1     1     0
SMALL
GAST_HUCK


@<TRIPOS>ATOM
      1 C1          1.2606    0.3211    2.2478 C.3       1 <1>        -0.0163 
      2 C2          0.8643   -1.1151    2.6943 C.3       1 <1>         0.0819 
      3 C3          1.9654   -1.7420    3.5866 C.3       1 <1>         0.0835 
      4 C4          2.2770   -0.8285    4.8036 C.3       1 <1>        -0.0028 
      5 C5          2.7208    0.5749    4.2955 C.3       1 <1>         0.0681 
      6 C6          1.6246    1.2818    3.4244 C.3       1 <1>        -0.0055 
      7 C7          2.1704    2.6620    2.8817 C.3       1 <1>        -0.0276 
      8 C8          3.6991    2.6561    2.5455 C.3       1 <1>        -0.0063 
      9 C9          4.5593    2.7238    3.8542 C.3       1 <1>         0.0801 
     10 O10         3.8795    2.6217    5.1274 O.3       1 <1>        -0.2763 
     11 C11         3.1613    1.5132    5.3947 C.2       1 <1>         0.2374 
     12 O12         2.8494    1.2795    6.5500 O.2       1 <1>        -0.3701 
     13 C13         1.3656    3.2608    1.6868 C.3       1 <1>        -0.0487 
     14 C14         1.7538    4.7562    1.4397 C.3       1 <1>        -0.0468 
     15 C15         3.2964    5.0594    1.5068 C.3       1 <1>        -0.0257 
     16 C16         4.0380    3.6982    1.4226 C.3       1 <1>        -0.0298 
     17 C17         5.5170    4.0406    1.1317 C.3       1 <1>        -0.0491 
     18 C18         5.4069    5.3192    0.2507 C.3       1 <1>        -0.0491 
     19 C19         3.9093    5.7746    0.2500 C.3       1 <1>        -0.0304 
     20 O20         0.6484   -1.9541    1.5456 O.3       1 <1>        -0.3892 
     21 O21         3.1278   -1.9043    2.7498 O.3       1 <1>        -0.3891 
     22 C22         6.9034    9.6873   -1.7274 C.3       1 <1>        -0.0417 
     23 C23         0.3510    1.5719    4.2978 C.3       1 <1>        -0.0568 
     24 C24         3.6599    5.8538    2.8035 C.3       1 <1>        -0.0590 
     25 C25         3.7347    7.3297    0.1036 C.3       1 <1>        -0.0120 
     26 C26         4.3551    7.8395   -1.2434 C.3       1 <1>         0.0844 
     27 C27         4.2990    9.3975   -1.4776 C.3       1 <1>         0.0872 
     28 C28         5.4876    9.8495   -2.4076 C.3       1 <1>        -0.0128 
     29 C29         2.3488   10.8977   -1.6884 C.3       1 <1>         0.0369 
     30 C30         7.6909   11.0079   -1.4548 C.3       1 <1>        -0.0623 
     31 C31         7.8168    8.7088   -2.5291 C.3       1 <1>        -0.0623 
     32 C32         2.2457    7.7612    0.2004 C.3       1 <1>        -0.0597 
     33 O33         3.7247    7.1038   -2.3110 O.3       1 <1>        -0.3889 
     34 O34         3.0070    9.6665   -2.0824 O.3       1 <1>        -0.3769 
     35 C35         5.2817   11.2298   -3.0990 C.3       1 <1>        -0.0597 
     36 H1          0.4136    0.7155    1.6684 H         1 <1>         0.0298 
     37 H2          2.1224    0.2409    1.5712 H         1 <1>         0.0298 
     38 H3         -0.0967   -1.1026    3.2301 H         1 <1>         0.0619 
     39 H4          1.6192   -2.7361    3.9256 H         1 <1>         0.0621 
     40 H5          3.0972   -1.2848    5.3825 H         1 <1>         0.0319 
     41 H6          1.4144   -0.7778    5.4823 H         1 <1>         0.0319 
     42 H7          3.6167    0.3208    3.7189 H         1 <1>         0.0560 
     43 H8          2.0307    3.4006    3.6841 H         1 <1>         0.0311 
     44 H9          3.9539    1.7101    2.0416 H         1 <1>         0.0332 
     45 H10         5.0256    3.7083    3.9593 H         1 <1>         0.0616 
     46 H11         5.3862    1.9965    3.8312 H         1 <1>         0.0616 
     47 H12         0.2795    3.2297    1.8663 H         1 <1>         0.0268 
     48 H13         1.5450    2.6658    0.7779 H         1 <1>         0.0268 
     49 H14         1.2274    5.3468    2.2082 H         1 <1>         0.0271 
     50 H15         1.3304    5.0400    0.4627 H         1 <1>         0.0271 
     51 H16         3.7129    3.2491    0.4629 H         1 <1>         0.0310 
     52 H17         6.0353    3.2074    0.6272 H         1 <1>         0.0268 
     53 H18         6.0846    4.2695    2.0441 H         1 <1>         0.0268 
     54 H19         5.7531    5.1037   -0.7749 H         1 <1>         0.0268 
     55 H20         6.0632    6.1016    0.6654 H         1 <1>         0.0268 
     56 H21         3.4282    5.3243   -0.6327 H         1 <1>         0.0310 
     57 H22         1.4542   -2.0950    1.0562 H         1 <1>         0.2099 
     58 H23         3.8643   -2.3170    3.1896 H         1 <1>         0.2099 
     59 H24         6.7768    9.2488   -0.7226 H         1 <1>         0.0299 
     60 H25        -0.4278    2.0884    3.7214 H         1 <1>         0.0237 
     61 H26         0.6020    2.2104    5.1597 H         1 <1>         0.0237 
     62 H27        -0.1285    0.6760    4.7060 H         1 <1>         0.0237 
     63 H28         3.3622    5.3120    3.7100 H         1 <1>         0.0235 
     64 H29         3.1373    6.8193    2.8406 H         1 <1>         0.0235 
     65 H30         4.7364    6.0697    2.8678 H         1 <1>         0.0235 
     66 H31         4.2813    7.8146    0.9271 H         1 <1>         0.0327 
     67 H32         5.4003    7.5053   -1.2305 H         1 <1>         0.0622 
     68 H33         4.4047    9.9112   -0.5074 H         1 <1>         0.0624 
     69 H34         5.4433    9.1686   -3.2698 H         1 <1>         0.0326 
     70 H35         1.4357   10.9522   -2.3123 H         1 <1>         0.0524 
     71 H36         2.0234   10.9085   -0.6308 H         1 <1>         0.0524 
     72 H37         2.9341   11.8185   -1.8583 H         1 <1>         0.0524 
     73 H38         8.6233   10.7867   -0.9071 H         1 <1>         0.0232 
     74 H39         7.1001   11.6993   -0.8336 H         1 <1>         0.0232 
     75 H40         7.9747   11.5202   -2.3877 H         1 <1>         0.0232 
     76 H41         7.3117    7.7504   -2.7270 H         1 <1>         0.0232 
     77 H42         8.7411    8.4864   -1.9724 H         1 <1>         0.0232 
     78 H43         8.0937    9.1545   -3.4970 H         1 <1>         0.0232 
     79 H44         1.6914    7.4552   -0.6971 H         1 <1>         0.0233 
     80 H45         2.1865    8.8482    0.3004 H         1 <1>         0.0233 
     81 H46         1.7280    7.3626    1.0770 H         1 <1>         0.0233 
     82 H47         4.0951    7.2504   -3.1740 H         1 <1>         0.2099 
     83 H48         4.3446   11.2400   -3.6789 H         1 <1>         0.0233 
     84 H49         6.0910   11.4387   -3.8164 H         1 <1>         0.0233 
     85 H50         5.2536   12.0484   -2.3654 H         1 <1>         0.0233 
@<TRIPOS>BOND
     1    1    2 1    
     2    2    3 1    
     3    4    3 1    
     4    5    4 1    
     5    6    5 1    
     6    6    1 1    
     7    7    6 1    
     8    8    7 1    
     9    8    9 1    
    10    9   10 1    
    11   10   11 1    
    12   11   12 2    
    13   11    5 1    
    14   13    7 1    
    15   14   13 1    
    16   15   14 1    
    17   15   16 1    
    18   16    8 1    
    19   16   17 1    
    20   18   17 1    
    21   19   18 1    
    22   19   15 1    
    23    2   20 1    
    24    3   21 1    
    25   28   22 1    
    26    6   23 1    
    27   15   24 1    
    28   25   19 1    
    29   26   25 1    
    30   27   26 1    
    31   27   28 1    
    32   34   29 1    
    33   22   30 1    
    34   22   31 1    
    35   25   32 1    
    36   26   33 1    
    37   27   34 1    
    38   28   35 1    
    39    1   36 1    
    40    1   37 1    
    41    2   38 1    
    42    3   39 1    
    43    4   40 1    
    44    4   41 1    
    45    5   42 1    
    46    7   43 1    
    47    8   44 1    
    48    9   45 1    
    49    9   46 1    
    50   13   47 1    
    51   13   48 1    
    52   14   49 1    
    53   14   50 1    
    54   16   51 1    
    55   17   52 1    
    56   17   53 1    
    57   18   54 1    
    58   18   55 1    
    59   19   56 1    
    60   20   57 1    
    61   21   58 1    
    62   22   59 1    
    63   23   60 1    
    64   23   61 1    
    65   23   62 1    
    66   24   63 1    
    67   24   64 1    
    68   24   65 1    
    69   25   66 1    
    70   26   67 1    
    71   27   68 1    
    72   28   69 1    
    73   29   70 1    
    74   29   71 1    
    75   29   72 1    
    76   30   73 1    
    77   30   74 1    
    78   30   75 1    
    79   31   76 1    
    80   31   77 1    
    81   31   78 1    
    82   32   79 1    
    83   32   80 1    
    84   32   81 1    
    85   33   82 1    
    86   35   83 1    
    87   35   84 1    
    88   35   85 1    
@<TRIPOS>SUBSTRUCTURE
     1 ****        2 TEMP              0 ****  ****    0 ROOT 
@<TRIPOS>NORMAL
@<TRIPOS>FF_PBC
FORCE_FIELD_SETUP_FEATURE Force Field Setup information
v1.0  0 0.000000 0.000000 0.000000 0.000000 0.000000 0.000000 NONE 0 0 0 0 1 0 0 0 0 0 0 0 0
