#	Name:			PISM00803
#	Creating user name:	baoopengkun
#	Creation time:		Tue Nov 20 11:41:17 2018

#	Modifying user name:	baoopengkun
#	Modification time:	Tue Nov 20 11:53:48 2018

@<TRIPOS>MOLECULE
PISM00803
   40    43     1     2     0
SMALL
GAST_HUCK


@<TRIPOS>ATOM
      1 C1         27.1693   -1.8783  -15.2391 C.3       1 <1>        -0.0354 
      2 C2         27.9649   -2.8083  -14.2821 C.3       1 <1>        -0.0465 
      3 C3         29.2060   -2.0697  -13.7101 C.3       1 <1>        -0.0466 
      4 C4         30.2041   -1.7153  -14.8468 C.3       1 <1>        -0.0380 
      5 C5         29.4433   -1.1205  -15.9999 C.2       1 <1>        -0.0848 
      6 C6         28.1285   -1.1909  -16.1708 C.2       1 <1>        -0.0549 
      7 C7         30.1443   -0.3826  -17.0963 C.3       1 <1>        -0.0267 
      8 C8         28.9292    0.2984  -17.7951 C.3       1 <1>         0.0281 
      9 C9         27.6399   -0.5038  -17.4100 C.3       1 <1>         0.1097 
     10 O10        26.5713    0.3971  -17.0631 O.3       1 <1>        -0.2711 
     11 O11        26.5320    2.5008  -16.3704 O.2       1 <1>        -0.3778 
     12 C12        28.5637    1.6361  -17.2117 C.2       1 <1>         0.0557 
     13 H1         26.6379   -1.1006  -14.6676 H         1 <1>         0.0366 
     14 C14        29.3809    2.6878  -17.0834 C.2       1 <1>         0.0789 
     15 O15        28.9230    3.8192  -16.5314 O.3       1 <1>        -0.2722 
     16 C16        29.8969    4.8736  -16.4821 C.3       1 <1>         0.2383 
     17 O17        31.0630    4.4470  -15.7475 O.3       1 <1>        -0.2305 
     18 C18        31.0940    5.2139  -14.6649 C.2       1 <1>         0.2495 
     19 O19        31.9623    5.0946  -13.8178 O.2       1 <1>        -0.3691 
     20 C20        30.0288    6.2060  -14.5674 C.2       1 <1>         0.0293 
     21 C21        29.3107    6.0014  -15.6698 C.2       1 <1>        -0.0010 
     22 C22        29.7932    7.2192  -13.4808 C.3       1 <1>        -0.0323 
     23 H2         26.4298   -2.4639  -15.8081 H         1 <1>         0.0366 
     24 H3         28.3080   -3.6998  -14.8331 H         1 <1>         0.0283 
     25 H4         27.3063   -3.1435  -13.4634 H         1 <1>         0.0283 
     26 H5         29.7125   -2.6966  -12.9573 H         1 <1>         0.0283 
     27 H6         28.8675   -1.1446  -13.2143 H         1 <1>         0.0283 
     28 H7         30.7156   -2.6218  -15.2069 H         1 <1>         0.0365 
     29 H8         30.9615   -1.0082  -14.4723 H         1 <1>         0.0365 
     30 H9         30.6316   -1.1160  -17.7578 H         1 <1>         0.0383 
     31 H10        30.8933    0.3277  -16.7169 H         1 <1>         0.0383 
     32 H11        29.0565    0.4052  -18.8845 H         1 <1>         0.0450 
     33 H12        27.3333   -1.2580  -18.1518 H         1 <1>         0.0766 
     34 H13        30.4078    2.5855  -17.4401 H         1 <1>         0.1070 
     35 H14        30.1766    5.2258  -17.4893 H         1 <1>         0.1210 
     36 H15        28.4190    6.5619  -15.9478 H         1 <1>         0.0706 
     37 H16        30.5244    7.0868  -12.6692 H         1 <1>         0.0347 
     38 H17        28.7795    7.0965  -13.0711 H         1 <1>         0.0347 
     39 H18        29.8961    8.2341  -13.8927 H         1 <1>         0.0347 
     40 C41        27.1554    1.5622  -16.8362 C.2       1 <1>         0.2372 
@<TRIPOS>BOND
     1    2    1 1    
     2    2    3 1    
     3    3    4 1    
     4    4    5 1    
     5    6    5 2    
     6    1    6 1    
     7    5    7 1    
     8    7    8 1    
     9    9    8 1    
    10    6    9 1    
    11    9   10 1    
    12   40   11 2    
    13    1   13 1    
    14    8   12 1    
    15    1   23 1    
    16   12   14 2    
    17   14   15 1    
    18   15   16 1    
    19   16   17 1    
    20   17   18 1    
    21   18   19 2    
    22   20   18 1    
    23   21   20 2    
    24   16   21 1    
    25   20   22 1    
    26    2   24 1    
    27    2   25 1    
    28    3   26 1    
    29    3   27 1    
    30    4   28 1    
    31    4   29 1    
    32    7   30 1    
    33    7   31 1    
    34    8   32 1    
    35    9   33 1    
    36   14   34 1    
    37   16   35 1    
    38   21   36 1    
    39   22   37 1    
    40   22   38 1    
    41   22   39 1    
    42   12   40 1    
    43   10   40 1    
@<TRIPOS>SUBSTRUCTURE
     1 ****        2 TEMP              0 ****  ****    0 ROOT 
@<TRIPOS>NORMAL
@<TRIPOS>FF_PBC
FORCE_FIELD_SETUP_FEATURE Force Field Setup information
v1.0  0 0.000000 0.000000 0.000000 0.000000 0.000000 0.000000 NONE 0 0 0 0 1 0 0 0 0 0 0 0 0
@<TRIPOS>RENDERING_ATTRS
ANTIALIASED_LINES 
*
