#	Name:			PISM00839.1
#	Creating user name:	baoopengkun
#	Creation time:		Thu Dec 13 14:40:19 2018

#	Modifying user name:	baoopengkun
#	Modification time:	Thu Dec 13 14:46:19 2018

@<TRIPOS>MOLECULE
PISM00839.1
   24    25     1     1     0
SMALL
GAST_HUCK


@<TRIPOS>ATOM
      1 C1         -8.6131   15.9051   -5.5937 C.ar      1 <1>        -0.0298 
      2 C2         -9.8733   15.5489   -5.1045 C.ar      1 <1>        -0.0611 
      3 C3        -10.7785   16.5419   -4.7182 C.ar      1 <1>         0.0012 
      4 C4        -10.4180   17.8896   -4.8099 C.ar      1 <1>        -0.0611 
      5 C5         -9.1559   18.2448   -5.2952 C.ar      1 <1>        -0.0298 
      6 C6         -8.2600   17.2525   -5.7033 C.ar      1 <1>         0.1011 
      7 Br7       -12.4546   16.0718   -4.0842 Br        1 <1>        -0.0600 
      8 O8         -7.0134   17.6005   -6.2207 O.3       1 <1>        -0.2687 
      9 C9         -7.0527   18.0878   -7.5700 C.3       1 <1>         0.2363 
     10 C10        -7.5686   17.0176   -8.5039 C.2       1 <1>        -0.0018 
     11 C11        -6.6175   16.6455   -9.3582 C.2       1 <1>         0.0292 
     12 C12        -5.4845   17.4884   -8.9956 C.2       1 <1>         0.2495 
     13 O13        -5.6979   18.3345   -7.9955 O.3       1 <1>        -0.2312 
     14 C14        -6.6849   15.6159  -10.4526 C.3       1 <1>        -0.0323 
     15 O15        -4.4137   17.4281   -9.5749 O.2       1 <1>        -0.3691 
     16 H1         -7.9050   15.1389   -5.8916 H         1 <1>         0.0549 
     17 H2        -10.1488   14.5021   -5.0249 H         1 <1>         0.0615 
     18 H3        -11.1183   18.6602   -4.5035 H         1 <1>         0.0615 
     19 H4         -8.8698   19.2897   -5.3541 H         1 <1>         0.0549 
     20 H5         -7.6379   19.0176   -7.6592 H         1 <1>         0.1200 
     21 H6         -8.5770   16.6062   -8.4771 H         1 <1>         0.0705 
     22 H7         -6.1742   15.9969  -11.3497 H         1 <1>         0.0347 
     23 H8         -7.7295   15.3827  -10.7087 H         1 <1>         0.0347 
     24 H9         -6.1823   14.6965  -10.1177 H         1 <1>         0.0347 
@<TRIPOS>BOND
     1    2    1 ar   
     2    2    3 ar   
     3    3    4 ar   
     4    4    5 ar   
     5    5    6 ar   
     6    1    6 ar   
     7    3    7 1    
     8    6    8 1    
     9    8    9 1    
    10    9   10 1    
    11   10   11 2    
    12   11   12 1    
    13   12   13 1    
    14    9   13 1    
    15   11   14 1    
    16   12   15 2    
    17    1   16 1    
    18    2   17 1    
    19    4   18 1    
    20    5   19 1    
    21    9   20 1    
    22   10   21 1    
    23   14   22 1    
    24   14   23 1    
    25   14   24 1    
@<TRIPOS>SUBSTRUCTURE
     1 ****        2 TEMP              0 ****  ****    0 ROOT 
@<TRIPOS>NORMAL
@<TRIPOS>FF_PBC
FORCE_FIELD_SETUP_FEATURE Force Field Setup information
v1.0  0 0.000000 0.000000 0.000000 0.000000 0.000000 0.000000 NONE 0 0 0 0 1 0 0 0 0 0 0 0 0
