#	Name:			PISM00061
#	Creating user name:	baoopengkun
#	Creation time:		Thu Dec 27 16:37:05 2018

#	Modifying user name:	baoopengkun
#	Modification time:	Thu Dec 27 16:38:11 2018

@<TRIPOS>MOLECULE
PISM00061
   19    19     1     1     0
SMALL
GAST_HUCK


@<TRIPOS>ATOM
      1 O1          1.5126    6.3810  -17.7551 O.3       1 <1>        -0.2419 
      2 N2          2.0102    6.7578  -16.4976 N.pl3     1 <1>         0.0218 
      3 O3          3.0142    7.4366  -16.4560 O.2       1 <1>        -0.1294 
      4 C4          1.3905    6.3613  -15.3557 C.ar      1 <1>         0.0917 
      5 C5          0.2566    5.5410  -15.4085 C.ar      1 <1>        -0.0242 
      6 C6         -0.4020    5.1197  -14.2450 C.ar      1 <1>         0.1326 
      7 C7          0.0950    5.5289  -12.9956 C.ar      1 <1>         0.0968 
      8 C8          1.2252    6.3472  -12.9374 C.ar      1 <1>        -0.0567 
      9 C9          1.8706    6.7630  -14.1040 C.ar      1 <1>        -0.0614 
     10 O10        -0.5064    5.1448  -11.7913 O.3       1 <1>        -0.3479 
     11 N11        -1.5028    4.3286  -14.3430 N.pl3     1 <1>         0.0258 
     12 O12        -2.0716    3.9289  -13.3500 O.2       1 <1>        -0.1293 
     13 O13        -2.0039    3.9380  -15.5951 O.3       1 <1>        -0.2418 
     14 H1          1.3394    7.1507  -18.2858 H         1 <1>         0.2517 
     15 H2         -0.1181    5.2248  -16.3747 H         1 <1>         0.0373 
     16 H3          1.6031    6.6614  -11.9696 H         1 <1>         0.0468 
     17 H4          2.7459    7.3997  -14.0235 H         1 <1>         0.0370 
     18 H5         -1.2412    4.5491  -11.8923 H         1 <1>         0.2391 
     19 H6         -2.9146    4.1968  -15.6860 H         1 <1>         0.2518 
@<TRIPOS>BOND
     1    2    1 1    
     2    2    3 2    
     3    2    4 1    
     4    4    5 ar   
     5    5    6 ar   
     6    6    7 ar   
     7    7    8 ar   
     8    8    9 ar   
     9    4    9 ar   
    10    7   10 1    
    11    6   11 1    
    12   11   12 2    
    13   11   13 1    
    14    1   14 1    
    15    5   15 1    
    16    8   16 1    
    17    9   17 1    
    18   10   18 1    
    19   13   19 1    
@<TRIPOS>SUBSTRUCTURE
     1 ****        2 TEMP              0 ****  ****    0 ROOT 
@<TRIPOS>NORMAL
@<TRIPOS>FF_PBC
FORCE_FIELD_SETUP_FEATURE Force Field Setup information
v1.0  0 0.000000 0.000000 0.000000 0.000000 0.000000 0.000000 NONE 0 0 0 0 1 0 0 0 0 0 0 0 0
