#	Name:			PISM00290
#	Creating user name:	baoopengkun
#	Creation time:		Sun Dec 16 03:19:57 2018

#	Modifying user name:	baoopengkun
#	Modification time:	Sun Dec 16 03:28:01 2018

@<TRIPOS>MOLECULE
PISM00290
   50    52     1     1     0
SMALL
GAST_HUCK


@<TRIPOS>ATOM
      1 C1        -18.9573   16.9972   44.6473 C.ar      1 <1>        -0.0726 
      2 C2        -18.3016   16.1609   43.7379 C.ar      1 <1>        -0.0207 
      3 C3        -17.2031   15.4099   44.1705 C.ar      1 <1>         0.1593 
      4 C4        -16.8120   15.4412   45.5124 C.ar      1 <1>         0.1611 
      5 C5        -17.5294   16.2037   46.4389 C.ar      1 <1>         0.0055 
      6 C6        -18.5823   17.0105   45.9931 C.ar      1 <1>        -0.0707 
      7 C7        -17.1604   16.1423   47.9248 C.3       1 <1>         0.1199 
      8 S8        -17.8013   14.6376   48.6886 S.o2      1 <1>         0.0662 
      9 O9        -17.6674   14.7925   50.1235 O.2       1 <1>        -0.1484 
     10 O10       -17.1852   13.4868   48.0649 O.2       1 <1>        -0.1484 
     11 N11       -19.4431   14.7033   48.3193 N.am      1 <1>        -0.1984 
     12 C12       -20.0260   14.6296   47.0217 C.ar      1 <1>         0.0439 
     13 C13       -19.4413   13.8858   45.9914 C.ar      1 <1>        -0.0617 
     14 C14       -20.0141   13.8618   44.7163 C.ar      1 <1>        -0.0607 
     15 C15       -21.2660   14.4454   44.4812 C.ar      1 <1>         0.0505 
     16 C16       -21.7987   15.2623   45.4855 C.ar      1 <1>        -0.0322 
     17 C17       -21.2119   15.3204   46.7538 C.ar      1 <1>        -0.0529 
     18 C18       -23.0311   16.1012   45.1534 C.3       1 <1>        -0.0077 
     19 C19       -22.9247   16.4752   43.6586 C.3       1 <1>         0.0497 
     20 C20       -22.7641   15.1965   42.8810 C.2       1 <1>         0.1999 
     21 O21       -23.4045   15.0863   41.8478 O.2       1 <1>        -0.3812 
     22 N22       -21.9678   14.2549   43.3278 N.pl3     1 <1>        -0.2378 
     23 C23       -21.9117   12.9848   42.5851 C.3       1 <1>         0.0446 
     24 C24       -23.2132   12.1834   42.8623 C.3       1 <1>        -0.0331 
     25 C25       -23.2189   10.8191   42.1234 C.3       1 <1>        -0.0632 
     26 F26       -16.5268   14.6595   43.3025 F         1 <1>        -0.1919 
     27 F27       -15.7544   14.7392   45.9134 F         1 <1>        -0.1918 
     28 C28       -18.7895   16.0672   42.2872 C.3       1 <1>        -0.0344 
     29 H1        -19.7634   17.6405   44.3123 H         1 <1>         0.0496 
     30 H2        -19.1203   17.6471   46.6884 H         1 <1>         0.0496 
     31 H3        -17.5828   17.0007   48.4675 H         1 <1>         0.0665 
     32 H4        -16.0677   16.1594   48.0511 H         1 <1>         0.0665 
     33 H5        -20.0506   14.8732   49.0955 H         1 <1>         0.2114 
     34 H6        -18.5395   13.3144   46.1586 H         1 <1>         0.0398 
     35 H7        -19.4519   13.3929   43.9177 H         1 <1>         0.0470 
     36 H8        -21.6770   15.9118   47.5349 H         1 <1>         0.0392 
     37 H9        -23.0741   17.0148   45.7679 H         1 <1>         0.0425 
     38 H10       -23.9323   15.4961   45.3424 H         1 <1>         0.0425 
     39 H11       -22.0538   17.1190   43.4697 H         1 <1>         0.0529 
     40 H12       -23.8328   17.0118   43.3398 H         1 <1>         0.0529 
     41 H13       -21.0840   12.3220   42.8687 H         1 <1>         0.0550 
     42 H14       -21.8086   13.1808   41.5048 H         1 <1>         0.0550 
     43 H15       -24.0941   12.7618   42.5407 H         1 <1>         0.0284 
     44 H16       -23.2981   12.0123   43.9485 H         1 <1>         0.0284 
     45 H17       -24.1547   10.2779   42.3353 H         1 <1>         0.0230 
     46 H18       -22.3736   10.1949   42.4530 H         1 <1>         0.0230 
     47 H19       -23.1421   10.9735   41.0358 H         1 <1>         0.0230 
     48 H20       -18.3195   16.8688   41.6987 H         1 <1>         0.0369 
     49 H21       -19.8831   16.1784   42.2394 H         1 <1>         0.0369 
     50 H22       -18.5271   15.0948   41.8439 H         1 <1>         0.0369 
@<TRIPOS>BOND
     1    2    1 ar   
     2    2    3 ar   
     3    3    4 ar   
     4    4    5 ar   
     5    5    6 ar   
     6    1    6 ar   
     7    5    7 1    
     8    7    8 1    
     9    8    9 2    
    10    8   10 2    
    11    8   11 1    
    12   11   12 1    
    13   12   13 ar   
    14   13   14 ar   
    15   14   15 ar   
    16   15   16 ar   
    17   16   17 ar   
    18   12   17 ar   
    19   16   18 1    
    20   18   19 1    
    21   19   20 1    
    22   20   21 2    
    23   20   22 1    
    24   15   22 1    
    25   22   23 1    
    26   23   24 1    
    27   24   25 1    
    28    3   26 1    
    29    4   27 1    
    30    2   28 1    
    31    1   29 1    
    32    6   30 1    
    33    7   31 1    
    34    7   32 1    
    35   11   33 1    
    36   13   34 1    
    37   14   35 1    
    38   17   36 1    
    39   18   37 1    
    40   18   38 1    
    41   19   39 1    
    42   19   40 1    
    43   23   41 1    
    44   23   42 1    
    45   24   43 1    
    46   24   44 1    
    47   25   45 1    
    48   25   46 1    
    49   25   47 1    
    50   28   48 1    
    51   28   49 1    
    52   28   50 1    
@<TRIPOS>SUBSTRUCTURE
     1 ****        2 TEMP              0 ****  ****    0 ROOT 
@<TRIPOS>NORMAL
@<TRIPOS>FF_PBC
FORCE_FIELD_SETUP_FEATURE Force Field Setup information
v1.0  0 0.000000 0.000000 0.000000 0.000000 0.000000 0.000000 NONE 0 0 0 0 1 0 0 0 0 0 0 0 0
