#	Name:			M00656
#	Creating user name:	XiyangLee
#	Creation time:		Tue Aug 31 18:20:44 2021

#	Modifying user name:	XiyangLee
#	Modification time:	Tue Aug 31 18:21:02 2021

@<TRIPOS>MOLECULE
M00656
   24    24     1     1     1
SMALL
GAST_HUCK
****
From 3DB ct
@<TRIPOS>ATOM
      1 O          -0.4832    1.3562    0.0181 O.2       1 <1>        -0.3826 
      2 C          -0.5245    0.1395    0.0076 C.2       1 <1>         0.2102 
      3 N           0.5522   -0.6855   -0.0005 N.am      1 <1>        -0.2179 
      4 H           0.3943   -1.6726   -0.0068 H         1 <1>         0.2311 
      5 C           1.9201   -0.2843   -0.0009 C.ar      1 <1>         0.1390 
      6 N           2.8161   -1.2939   -0.0022 N.ar      1 <1>        -0.2850 
      7 C           4.1468   -1.0752   -0.0060 C.ar      1 <1>        -0.0071 
      8 H           4.8268   -1.9206   -0.0076 H         1 <1>         0.0774 
      9 C           4.6435    0.2301   -0.0078 C.ar      1 <1>        -0.0504 
     10 H           5.7138    0.4118   -0.0117 H         1 <1>         0.0578 
     11 C           3.7424    1.2972   -0.0046 C.ar      1 <1>        -0.0563 
     12 H           4.1111    2.3187   -0.0051 H         1 <1>         0.0691 
     13 C           2.3672    1.0452   -0.0011 C.ar      1 <1>        -0.0131 
     14 H           1.7035    1.8964    0.0011 H         1 <1>         0.0598 
     15 C          -1.8934   -0.4998    0.0035 C.3       1 <1>         0.0621 
     16 H          -1.9825   -1.1320   -0.8943 H         1 <1>         0.0535 
     17 H          -1.9853   -1.1381    0.8967 H         1 <1>         0.0535 
     18 C          -3.0370    0.5492    0.0047 C.3       1 <1>         0.0659 
     19 H          -2.9668    1.1819    0.9034 H         1 <1>         0.0543 
     20 H          -2.9591    1.1920   -0.8862 H         1 <1>         0.0543 
     21 C          -4.3887   -0.1118   -0.0053 C.2       1 <1>         0.2335 
     22 O          -5.4358    0.7121   -0.0131 O.3       1 <1>        -0.2926 
     23 H          -6.2528    0.2252   -0.0197 H         1 <1>         0.2539 
     24 O          -4.5156   -1.3257   -0.0064 O.2       1 <1>        -0.3704 
@<TRIPOS>BOND
     1    1    2 2    
     2    2    3 am   
     3    3    4 1    
     4    3    5 1    
     5    5    6 ar   
     6    6    7 ar   
     7    7    8 1    
     8    7    9 ar   
     9    9   10 1    
    10    9   11 ar   
    11   11   12 1    
    12   11   13 ar   
    13   13   14 1    
    14   13    5 ar   
    15    2   15 1    
    16   15   16 1    
    17   15   17 1    
    18   15   18 1    
    19   18   19 1    
    20   18   20 1    
    21   18   21 1    
    22   21   22 1    
    23   22   23 1    
    24   21   24 2    
@<TRIPOS>SUBSTRUCTURE
     1 ****        1 TEMP              0 ****  ****    0 ROOT 
@<TRIPOS>SET
UNITY_3DHIT     STATIC     ATOMS    <user>   **** Atoms matching 3D or FLEX Search
0
@<TRIPOS>NORMAL
@<TRIPOS>FF_PBC
FORCE_FIELD_SETUP_FEATURE Force Field Setup information
v1.0  0 0.000000 0.000000 0.000000 0.000000 0.000000 0.000000 NONE 0 0 0 0 1 0 0 0 0 0 0 0 0
