#	Name:			PISM00794
#	Creating user name:	baoopengkun
#	Creation time:		Tue Jan 08 16:07:05 2019

#	Modifying user name:	baoopengkun
#	Modification time:	Tue Jan 08 16:07:20 2019

@<TRIPOS>MOLECULE
PISM00794
   61    66     1     1     0
SMALL
GAST_HUCK


@<TRIPOS>ATOM
      1 C1         21.8517    5.3477  -42.1926 C.ar      1 <1>        -0.0280 
      2 C2         19.8011    5.5626  -43.6034 C.ar      1 <1>        -0.0662 
      3 C3         18.4693    5.9470  -43.8122 C.ar      1 <1>        -0.0401 
      4 C4         17.8042    6.5570  -42.7481 C.ar      1 <1>         0.0672 
      5 C5         18.4492    6.7682  -41.5369 C.ar      1 <1>        -0.0083 
      6 C6         19.7723    6.3962  -41.3096 C.ar      1 <1>        -0.0622 
      7 C7         17.3696    7.4263  -40.7209 C.2       1 <1>        -0.0151 
      8 C8         16.3026    7.5141  -41.5067 C.2       1 <1>         0.1044 
      9 N9         16.5304    7.0149  -42.6927 N.pl3     1 <1>        -0.2670 
     10 C10        15.5639    6.9614  -43.7827 C.3       1 <1>         0.0370 
     11 C11        15.2185    8.1506  -40.7659 C.2       1 <1>         0.1400 
     12 O12        14.0852    8.3985  -41.1448 O.2       1 <1>        -0.4040 
     13 C13        15.7932    8.4445  -39.4397 C.2       1 <1>         0.0306 
     14 C14        17.2308    7.9608  -39.3222 C.3       1 <1>         0.0055 
     15 C15        15.1289    9.0671  -38.4609 C.2       1 <1>         0.0832 
     16 O16        15.7455    9.3095  -37.2951 O.3       1 <1>        -0.2667 
     17 C17        14.9227    9.9811  -36.3251 C.3       1 <1>         0.2401 
     18 C18        14.4743   11.3450  -36.7948 C.2       1 <1>        -0.0007 
     19 C19        13.1445   11.4206  -36.7864 C.2       1 <1>         0.0293 
     20 C20        12.7263   10.1043  -36.3143 C.2       1 <1>         0.2496 
     21 O21        13.7094    9.2481  -36.0612 O.3       1 <1>        -0.2302 
     22 C22        12.2742   12.5881  -37.1634 C.3       1 <1>        -0.0323 
     23 O23        11.5551    9.8026  -36.1658 O.2       1 <1>        -0.3691 
     24 C24        24.1595    5.8744  -41.6493 C.ar      1 <1>        -0.0256 
     25 C25        24.5102    4.5308  -41.8395 C.ar      1 <1>        -0.0291 
     26 C26        22.2042    4.0094  -42.3848 C.ar      1 <1>        -0.0592 
     27 C27        23.5297    3.6029  -42.2105 C.ar      1 <1>        -0.0600 
     28 C28        22.8305    6.2769  -41.8288 C.ar      1 <1>        -0.0533 
     29 C29        25.8383    4.1271  -41.6565 C.ar      1 <1>        -0.0293 
     30 C30        26.8151    5.0581  -41.2956 C.ar      1 <1>         0.0917 
     31 C31        26.4655    6.3960  -41.1040 C.ar      1 <1>        -0.0278 
     32 C32        25.1405    6.8035  -41.2814 C.ar      1 <1>        -0.0568 
     33 O33        28.1389    4.6540  -41.1250 O.3       1 <1>        -0.3206 
     34 C34        28.8850    4.5801  -42.3502 C.3       1 <1>         0.0597 
     35 H1         20.3466    5.0887  -44.4134 H         1 <1>         0.0558 
     36 C36        20.4434    5.7787  -42.3732 C.ar      1 <1>        -0.0336 
     37 H2         17.9768    5.7768  -44.7630 H         1 <1>         0.0550 
     38 H3         20.2510    6.5768  -40.3536 H         1 <1>         0.0570 
     39 H4         14.5987    7.4049  -43.4940 H         1 <1>         0.0555 
     40 H5         15.3936    5.9129  -44.0704 H         1 <1>         0.0555 
     41 H6         15.9564    7.5154  -44.6487 H         1 <1>         0.0555 
     42 C42        17.4018    6.8224  -38.2875 C.3       1 <1>        -0.0509 
     43 H8         17.9290    8.7948  -39.1480 H         1 <1>         0.0507 
     44 H9         14.0955    9.3509  -38.6746 H         1 <1>         0.1132 
     45 H10        15.4944   10.0839  -35.3887 H         1 <1>         0.1214 
     46 H11        15.1474   12.1472  -37.0947 H         1 <1>         0.0706 
     47 H12        12.1543   12.6168  -38.2566 H         1 <1>         0.0347 
     48 H13        12.7306   13.5303  -36.8248 H         1 <1>         0.0347 
     49 H14        11.2827   12.4854  -36.6971 H         1 <1>         0.0347 
     50 H15        21.4478    3.2838  -42.6673 H         1 <1>         0.0606 
     51 H16        23.7886    2.5600  -42.3656 H         1 <1>         0.0591 
     52 H17        22.5479    7.3154  -41.6888 H         1 <1>         0.0604 
     53 H18        26.1263    3.0898  -41.7907 H         1 <1>         0.0498 
     54 H19        27.2274    7.1133  -40.8178 H         1 <1>         0.0589 
     55 H20        24.8827    7.8473  -41.1304 H         1 <1>         0.0615 
     56 H21        29.9099    4.2600  -42.1112 H         1 <1>         0.0578 
     57 H22        28.9273    5.5657  -42.8398 H         1 <1>         0.0578 
     58 H23        28.4388    3.8481  -43.0414 H         1 <1>         0.0578 
     59 H7         16.6806    6.0146  -38.4868 H         1 <1>         0.0265 
     60 H24        17.2376    7.1996  -37.2671 H         1 <1>         0.0265 
     61 H25        18.4208    6.4105  -38.3494 H         1 <1>         0.0265 
@<TRIPOS>BOND
     1    1   36 1    
     2    3    2 ar   
     3    4    3 ar   
     4    5    4 ar   
     5    6    5 ar   
     6   24   28 ar   
     7    5    7 1    
     8    7    8 2    
     9    8    9 1    
    10    4    9 1    
    11    9   10 1    
    12    8   11 1    
    13   11   12 2    
    14   13   11 1    
    15   14   13 1    
    16    7   14 1    
    17   13   15 2    
    18   15   16 1    
    19   16   17 1    
    20   17   18 1    
    21   18   19 2    
    22   20   19 1    
    23   21   20 1    
    24   17   21 1    
    25   19   22 1    
    26   20   23 2    
    27   36    6 ar   
    28   25   24 ar   
    29   26    1 ar   
    30   27   26 ar   
    31   25   27 ar   
    32    1   28 ar   
    33   25   29 ar   
    34   29   30 ar   
    35   30   31 ar   
    36   31   32 ar   
    37   24   32 ar   
    38   30   33 1    
    39   33   34 1    
    40    2   35 1    
    41    2   36 ar   
    42    3   37 1    
    43    6   38 1    
    44   10   39 1    
    45   10   40 1    
    46   10   41 1    
    47   14   42 1    
    48   14   43 1    
    49   15   44 1    
    50   17   45 1    
    51   18   46 1    
    52   22   47 1    
    53   22   48 1    
    54   22   49 1    
    55   26   50 1    
    56   27   51 1    
    57   28   52 1    
    58   29   53 1    
    59   31   54 1    
    60   32   55 1    
    61   34   56 1    
    62   34   57 1    
    63   34   58 1    
    64   42   59 1    
    65   42   60 1    
    66   42   61 1    
@<TRIPOS>SUBSTRUCTURE
     1 ****        2 TEMP              0 ****  ****    0 ROOT 
@<TRIPOS>NORMAL
@<TRIPOS>FF_PBC
FORCE_FIELD_SETUP_FEATURE Force Field Setup information
v1.0  0 0.000000 0.000000 0.000000 0.000000 0.000000 0.000000 NONE 0 0 0 0 1 0 0 0 0 0 0 0 0
