#	Name:			PISM00781.1
#	Creating user name:	baoopengkun
#	Creation time:		Fri Nov 30 22:23:43 2018

#	Modifying user name:	baoopengkun
#	Modification time:	Fri Nov 30 22:24:36 2018

@<TRIPOS>MOLECULE
PISM00781.1
   27    28     1     2     0
SMALL
GAST_HUCK


@<TRIPOS>ATOM
      1 C1        -26.7596   16.4959  -22.7226 C.2       1 <1>         0.0795 
      2 C2        -27.0214   17.3249  -23.9518 C.3       1 <1>         0.0127 
      3 C3        -27.9884   18.4779  -23.5919 C.3       1 <1>        -0.0210 
      4 C4        -27.4190   19.2956  -22.4054 C.3       1 <1>         0.0254 
      5 C5        -27.1204   18.3994  -21.2287 C.2       1 <1>         0.1026 
      6 C6        -26.8174   17.0990  -21.3774 C.2       1 <1>        -0.0086 
      7 O7        -26.4956   15.3097  -22.8418 O.2       1 <1>        -0.4166 
      8 O8        -27.1798   19.0429  -20.0432 O.3       1 <1>        -0.2481 
      9 C9        -27.0865   18.2673  -18.8331 C.3       1 <1>         0.2446 
     10 O10       -27.1230   19.2119  -17.7403 O.3       1 <1>        -0.2297 
     11 C11       -28.2304   18.9378  -17.0610 C.2       1 <1>         0.2496 
     12 C12       -29.0140   17.8206  -17.5720 C.2       1 <1>         0.0293 
     13 C13       -28.3211   17.4127  -18.6331 C.2       1 <1>        -0.0002 
     14 C14       -30.2994   17.2546  -17.0340 C.3       1 <1>        -0.0323 
     15 O15       -28.5592   19.5795  -16.0769 O.2       1 <1>        -0.3691 
     16 H1        -27.4786   16.7028  -24.7389 H         1 <1>         0.0471 
     17 H2        -26.0637   17.7190  -24.3266 H         1 <1>         0.0471 
     18 H3        -28.9643   18.0530  -23.3014 H         1 <1>         0.0321 
     19 H4        -28.1414   19.1323  -24.4663 H         1 <1>         0.0321 
     20 H5        -28.1618   20.0577  -22.1172 H         1 <1>         0.0541 
     21 H6        -26.4905   19.8099  -22.6999 H         1 <1>         0.0541 
     22 H7        -26.5878   16.4085  -20.5689 H         1 <1>         0.0187 
     23 H8        -26.1406   17.7128  -18.7339 H         1 <1>         0.1219 
     24 H9        -28.6311   16.5760  -19.2574 H         1 <1>         0.0707 
     25 H10       -30.6103   17.7944  -16.1272 H         1 <1>         0.0347 
     26 H11       -30.1611   16.1914  -16.7873 H         1 <1>         0.0347 
     27 H12       -31.0893   17.3484  -17.7941 H         1 <1>         0.0347 
@<TRIPOS>BOND
     1    2    1 1    
     2    2    3 1    
     3    3    4 1    
     4    4    5 1    
     5    5    6 2    
     6    1    6 1    
     7    1    7 2    
     8    5    8 1    
     9    8    9 1    
    10    9   10 1    
    11   10   11 1    
    12   11   12 1    
    13   12   13 2    
    14    9   13 1    
    15   12   14 1    
    16   11   15 2    
    17    2   16 1    
    18    2   17 1    
    19    3   18 1    
    20    3   19 1    
    21    4   20 1    
    22    4   21 1    
    23    6   22 1    
    24    9   23 1    
    25   13   24 1    
    26   14   25 1    
    27   14   26 1    
    28   14   27 1    
@<TRIPOS>SUBSTRUCTURE
     1 ****        2 TEMP              0 ****  ****    0 ROOT 
@<TRIPOS>NORMAL
@<TRIPOS>FF_PBC
FORCE_FIELD_SETUP_FEATURE Force Field Setup information
v1.0  0 0.000000 0.000000 0.000000 0.000000 0.000000 0.000000 NONE 0 0 0 0 0 0 0 0 0 0 0 0 0
@<TRIPOS>RENDERING_ATTRS
ANTIALIASED_LINES 
*
