#	Name:			PISM00473
#	Creating user name:	baoopengkun
#	Creation time:		Wed Feb 27 22:03:31 2019

#	Modifying user name:	baoopengkun
#	Modification time:	Wed Feb 27 22:05:43 2019

@<TRIPOS>MOLECULE
PISM00473
   22    22     1     1     0
SMALL
GAST_HUCK


@<TRIPOS>ATOM
      1 C1         17.9817    4.0646  -16.5732 C.2       1 <1>        -0.0987 
      2 C2         17.9615    5.2553  -15.9703 C.2       1 <1>        -0.0987 
      3 C3         17.4161    3.9653  -17.9493 C.3       1 <1>        -0.0365 
      4 C4         17.9860    5.2876  -14.4798 C.3       1 <1>        -0.0365 
      5 H1         18.2663    3.1419  -16.0659 H         1 <1>         0.0450 
      6 H2         17.7953    6.1928  -16.5027 H         1 <1>         0.0450 
      7 H3         17.4693    4.9170  -18.5034 H         1 <1>         0.0388 
      8 C8         15.9345    3.6127  -17.6047 C.3       1 <1>        -0.0464 
      9 H5         17.9091    3.1799  -18.5449 H         1 <1>         0.0388 
     10 H6         18.4771    4.4034  -14.0408 H         1 <1>         0.0388 
     11 C11        16.4525    5.2660  -14.1864 C.3       1 <1>        -0.0464 
     12 H8         18.4770    6.1951  -14.0923 H         1 <1>         0.0388 
     13 C13        15.2461    4.4889  -16.4900 C.3       1 <1>        -0.0514 
     14 C14        15.6024    4.1989  -14.9756 C.3       1 <1>        -0.0514 
     15 H4         15.8739    2.5565  -17.2924 H         1 <1>         0.0285 
     16 H7         15.3655    3.7053  -18.5462 H         1 <1>         0.0285 
     17 H9         16.0269    6.2619  -14.3959 H         1 <1>         0.0285 
     18 H10        16.3455    5.0896  -13.1020 H         1 <1>         0.0285 
     19 H11        14.1683    4.2763  -16.6108 H         1 <1>         0.0267 
     20 H12        15.3692    5.5578  -16.7222 H         1 <1>         0.0267 
     21 H13        16.0545    3.2013  -14.8652 H         1 <1>         0.0267 
     22 H14        14.6454    4.1590  -14.4244 H         1 <1>         0.0267 
@<TRIPOS>BOND
     1    2    1 2    
     2    1    3 1    
     3    2    4 1    
     4    1    5 1    
     5    2    6 1    
     6    3    7 1    
     7    3    8 1    
     8    3    9 1    
     9    4   10 1    
    10    4   11 1    
    11    4   12 1    
    12    8   13 1    
    13   13   14 1    
    14   11   14 1    
    15    8   15 1    
    16    8   16 1    
    17   11   17 1    
    18   11   18 1    
    19   13   19 1    
    20   13   20 1    
    21   14   21 1    
    22   14   22 1    
@<TRIPOS>SUBSTRUCTURE
     1 ****        2 TEMP              0 ****  ****    0 ROOT 
@<TRIPOS>NORMAL
@<TRIPOS>FF_PBC
FORCE_FIELD_SETUP_FEATURE Force Field Setup information
v1.0  0 0.000000 0.000000 0.000000 0.000000 0.000000 0.000000 NONE 0 0 0 0 1 0 0 0 0 0 0 0 0
