#	Name:			PISM00962.1
#	Creating user name:	baoopengkun
#	Creation time:		Thu Dec 13 10:35:31 2018

#	Modifying user name:	baoopengkun
#	Modification time:	Thu Dec 13 10:58:53 2018

@<TRIPOS>MOLECULE
PISM00962.1
   41    43     1     1     0
SMALL
GAST_HUCK


@<TRIPOS>ATOM
      1 C1         -7.1243   11.8723   -7.4356 C.ar      1 <1>        -0.0039 
      2 C2         -6.3872   11.3672   -6.3655 C.ar      1 <1>         0.0716 
      3 C3         -7.0562   10.7081   -5.3356 C.ar      1 <1>        -0.0183 
      4 C4         -8.4444   10.5523   -5.3884 C.ar      1 <1>        -0.0372 
      5 C5         -9.2040   11.0228   -6.4737 C.ar      1 <1>        -0.0071 
      6 C6         -8.5125   11.7128   -7.4886 C.ar      1 <1>         0.0682 
      7 C7        -10.7459   10.8000   -6.5550 C.3       1 <1>         0.0856 
      8 O8        -11.3877   12.0860   -6.4455 O.3       1 <1>        -0.4222 
      9 C9        -11.1354   10.0170   -7.8563 C.3       1 <1>        -0.0365 
     10 C10       -11.3463   10.0318   -5.3337 C.3       1 <1>         0.0813 
     11 N11       -12.7856    9.8247   -5.4446 N.pl3     1 <1>        -0.1840 
     12 N12       -13.7588   10.7381   -5.1685 N.2       1 <1>        -0.1909 
     13 C13       -14.9445   10.2770   -5.3187 C.2       1 <1>         0.0618 
     14 N14       -14.6581    8.9266   -5.7168 N.2       1 <1>        -0.2870 
     15 C15       -13.4190    8.7353   -5.7610 C.2       1 <1>         0.1269 
     16 C16       -12.4268   10.5494   -8.5359 C.3       1 <1>        -0.0241 
     17 C17       -12.8373    9.6065   -9.6760 C.ar      1 <1>        -0.0434 
     18 C18       -12.2052    9.6999  -10.9211 C.ar      1 <1>        -0.0597 
     19 C19       -12.5717    8.8452  -11.9648 C.ar      1 <1>        -0.0546 
     20 C20       -13.5719    7.8896  -11.7679 C.ar      1 <1>         0.0330 
     21 C21       -14.2060    7.7925  -10.5267 C.ar      1 <1>        -0.0546 
     22 C22       -13.8398    8.6486   -9.4840 C.ar      1 <1>        -0.0597 
     23 Cl23      -14.0299    6.8159  -13.0741 Cl        1 <1>        -0.0771 
     24 Cl24       -4.6467   11.5593   -6.3153 Cl        1 <1>        -0.0423 
     25 Cl25       -9.3146   12.4217   -8.8825 Cl        1 <1>        -0.0424 
     26 H1         -6.6097   12.3956   -8.2346 H         1 <1>         0.0708 
     27 H2         -6.4922   10.3187   -4.4934 H         1 <1>         0.0703 
     28 H3         -8.8986   10.0523   -4.5438 H         1 <1>         0.0846 
     29 H4        -11.1739   12.7234   -7.1129 H         1 <1>         0.1956 
     30 H5        -11.2797    8.9506   -7.6236 H         1 <1>         0.0215 
     31 H6        -10.3315   10.0333   -8.6046 H         1 <1>         0.0215 
     32 H7        -11.1963   10.6196   -4.4147 H         1 <1>         0.0567 
     33 H8        -10.8696    9.0466   -5.2116 H         1 <1>         0.0567 
     34 H9        -15.9034   10.7737   -5.1799 H         1 <1>         0.0863 
     35 H10       -12.9688    7.7802   -6.0285 H         1 <1>         0.1361 
     36 H11       -12.2564   11.5521   -8.9573 H         1 <1>         0.0420 
     37 H12       -13.2477   10.6374   -7.8099 H         1 <1>         0.0420 
     38 H13       -11.4253   10.4376  -11.0816 H         1 <1>         0.0557 
     39 H14       -12.0806    8.9217  -12.9294 H         1 <1>         0.0606 
     40 H15       -14.9836    7.0511  -10.3745 H         1 <1>         0.0606 
     41 H16       -14.3399    8.5634   -8.5247 H         1 <1>         0.0557 
@<TRIPOS>BOND
     1    2    1 ar   
     2    2    3 ar   
     3    3    4 ar   
     4    4    5 ar   
     5    5    6 ar   
     6    1    6 ar   
     7    5    7 1    
     8    7    8 1    
     9    7    9 1    
    10    7   10 1    
    11   10   11 1    
    12   11   12 1    
    13   12   13 2    
    14   13   14 1    
    15   14   15 2    
    16   11   15 1    
    17    9   16 1    
    18   16   17 1    
    19   17   18 ar   
    20   18   19 ar   
    21   19   20 ar   
    22   20   21 ar   
    23   21   22 ar   
    24   17   22 ar   
    25   20   23 1    
    26    2   24 1    
    27    6   25 1    
    28    1   26 1    
    29    3   27 1    
    30    4   28 1    
    31    8   29 1    
    32    9   30 1    
    33    9   31 1    
    34   10   32 1    
    35   10   33 1    
    36   13   34 1    
    37   15   35 1    
    38   16   36 1    
    39   16   37 1    
    40   18   38 1    
    41   19   39 1    
    42   21   40 1    
    43   22   41 1    
@<TRIPOS>SUBSTRUCTURE
     1 ****        2 TEMP              0 ****  ****    0 ROOT 
@<TRIPOS>NORMAL
@<TRIPOS>FF_PBC
FORCE_FIELD_SETUP_FEATURE Force Field Setup information
v1.0  0 0.000000 0.000000 0.000000 0.000000 0.000000 0.000000 NONE 0 0 0 0 1 0 0 0 0 0 0 0 0
