#	Name:			PISM00740
#	Creating user name:	baoopengkun
#	Creation time:		Sun Jan 20 22:20:31 2019

#	Modifying user name:	baoopengkun
#	Modification time:	Sun Jan 20 22:25:58 2019

@<TRIPOS>MOLECULE
PISM00740
   91    94     1     1     0
SMALL
GAST_HUCK


@<TRIPOS>ATOM
      1 C1          2.3655    3.2591    4.6472 C.3       1 <1>        -0.0161 
      2 C2          2.9520    2.2286    5.6537 C.3       1 <1>         0.0849 
      3 C3          4.0475    2.8986    6.5317 C.3       1 <1>         0.0837 
      4 C4          3.5128    4.1730    7.2362 C.3       1 <1>        -0.0028 
      5 C5          2.9628    5.1691    6.1772 C.3       1 <1>         0.0681 
      6 C6          1.8098    4.5629    5.3040 C.3       1 <1>        -0.0055 
      7 C7          1.3349    5.6143    4.2201 C.3       1 <1>        -0.0276 
      8 C8          2.4743    6.5348    3.6723 C.3       1 <1>        -0.0063 
      9 C9          2.8706    7.6237    4.7288 C.3       1 <1>         0.0801 
     10 O10         2.2884    7.5611    6.0520 O.3       1 <1>        -0.2763 
     11 C11         2.4850    6.4583    6.7941 C.2       1 <1>         0.2374 
     12 O12         2.2418    6.5091    7.9874 O.2       1 <1>        -0.3701 
     13 C13         0.5167    5.0240    3.0318 C.3       1 <1>        -0.0487 
     14 C14        -0.1916    6.1425    2.1971 C.3       1 <1>        -0.0468 
     15 C15         0.6600    7.4423    1.9654 C.3       1 <1>        -0.0257 
     16 C16         2.1431    7.0642    2.2309 C.3       1 <1>        -0.0298 
     17 C17         2.9992    8.2018    1.6173 C.3       1 <1>        -0.0491 
     18 C18         2.1027    8.7544    0.4697 C.3       1 <1>        -0.0491 
     19 C19         0.7736    7.9320    0.4732 C.3       1 <1>        -0.0303 
     20 O20         3.4804    1.1494    4.8468 O.3       1 <1>        -0.3772 
     21 O21         5.1667    3.2723    5.7078 O.3       1 <1>        -0.3891 
     22 C22         0.6871   11.5335   -3.6698 C.3       1 <1>        -0.0417 
     23 C23         0.5704    4.2151    6.2028 C.3       1 <1>        -0.0568 
     24 C24         0.1670    8.6114    2.8800 C.3       1 <1>        -0.0590 
     25 C25        -0.4349    8.6851   -0.1978 C.3       1 <1>        -0.0118 
     26 C26        -0.0548    9.2239   -1.6322 C.3       1 <1>         0.0874 
     27 C27        -1.1345   10.0312   -2.4494 C.3       1 <1>         0.0874 
     28 C28        -0.6280   10.6789   -3.7882 C.3       1 <1>        -0.0128 
     29 C29         3.9032   -0.0182    5.5813 C.3       1 <1>         0.0369 
     30 C30         0.5801   12.7565   -2.7114 C.3       1 <1>        -0.0623 
     31 C31         1.2172   12.0232   -5.0507 C.3       1 <1>        -0.0623 
     32 C32        -1.7327    7.8280   -0.1485 C.3       1 <1>        -0.0597 
     33 O33         0.9507    8.4771   -2.3613 O.3       1 <1>        -0.3769 
     34 O34        -2.4671    9.4773   -2.5877 O.3       1 <1>        -0.3769 
     35 C35        -1.7901   11.4833   -4.4508 C.3       1 <1>        -0.0597 
     36 C36         0.5465    7.2738   -3.0296 C.3       1 <1>         0.0369 
     37 C37        -2.6345    8.3105   -3.4146 C.3       1 <1>         0.0369 
     38 H1          1.5721    2.7382    4.0895 H         1 <1>         0.0298 
     39 H2          3.1598    3.5192    3.9314 H         1 <1>         0.0298 
     40 H3          2.1466    1.8285    6.2892 H         1 <1>         0.0622 
     41 H4          4.3899    2.2053    7.3193 H         1 <1>         0.0621 
     42 H5          4.3514    4.6482    7.7750 H         1 <1>         0.0319 
     43 H6          2.7618    3.9130    7.9957 H         1 <1>         0.0319 
     44 H7          3.8623    5.3959    5.5914 H         1 <1>         0.0560 
     45 H8          0.6175    6.2775    4.7215 H         1 <1>         0.0311 
     46 H9          3.3646    5.9095    3.4925 H         1 <1>         0.0332 
     47 H10         2.4951    8.6047    4.4193 H         1 <1>         0.0616 
     48 H11         3.9656    7.7251    4.8096 H         1 <1>         0.0616 
     49 H12        -0.2649    4.3304    3.3775 H         1 <1>         0.0268 
     50 H13         1.1880    4.4348    2.3866 H         1 <1>         0.0268 
     51 H14        -1.1214    6.4044    2.7285 H         1 <1>         0.0271 
     52 H15        -0.4793    5.6818    1.2389 H         1 <1>         0.0271 
     53 H16         2.3469    6.2220    1.5415 H         1 <1>         0.0310 
     54 H17         3.9671    7.8214    1.2451 H         1 <1>         0.0268 
     55 H18         3.2256    9.0096    2.3272 H         1 <1>         0.0268 
     56 H19         2.6280    8.6808   -0.4971 H         1 <1>         0.0268 
     57 H20         1.8937    9.8208    0.6547 H         1 <1>         0.0268 
     58 H21         0.9537    7.0407   -0.1503 H         1 <1>         0.0310 
     59 H22         5.5100    2.5294    5.2187 H         1 <1>         0.2099 
     60 H23         1.4889   10.8753   -3.2956 H         1 <1>         0.0299 
     61 H24        -0.2403    3.7717    5.6101 H         1 <1>         0.0237 
     62 H25         0.1695    5.1166    6.6903 H         1 <1>         0.0237 
     63 H26         0.7779    3.5033    7.0077 H         1 <1>         0.0237 
     64 H27        -0.8738    8.8721    2.6459 H         1 <1>         0.0235 
     65 H28         0.7726    9.5193    2.7591 H         1 <1>         0.0235 
     66 H29         0.1767    8.3488    3.9427 H         1 <1>         0.0235 
     67 H30        -0.6676    9.5754    0.4119 H         1 <1>         0.0327 
     68 H31         0.6425   10.0290   -1.3590 H         1 <1>         0.0624 
     69 H32        -1.4178   10.8750   -1.7998 H         1 <1>         0.0624 
     70 H33        -0.3813    9.8509   -4.4692 H         1 <1>         0.0326 
     71 H34         3.0866   -0.4299    6.1948 H         1 <1>         0.0524 
     72 H35         4.7796    0.1732    6.2169 H         1 <1>         0.0524 
     73 H36         4.1890   -0.7806    4.8414 H         1 <1>         0.0524 
     74 H37        -0.1587   13.4840   -3.0771 H         1 <1>         0.0232 
     75 H38         1.5520   13.2705   -2.6528 H         1 <1>         0.0232 
     76 H39         0.3063   12.4654   -1.6882 H         1 <1>         0.0232 
     77 H40         1.2439   11.1964   -5.7771 H         1 <1>         0.0232 
     78 H41         2.2416   12.4159   -4.9483 H         1 <1>         0.0232 
     79 H42         0.5995   12.8347   -5.4603 H         1 <1>         0.0232 
     80 H43        -2.5965    8.3654   -0.5548 H         1 <1>         0.0233 
     81 H44        -2.0101    7.5975    0.8861 H         1 <1>         0.0233 
     82 H45        -1.6127    6.8794   -0.6864 H         1 <1>         0.0233 
     83 H46        -1.5065   11.8787   -5.4351 H         1 <1>         0.0233 
     84 H47        -2.1014   12.3209   -3.8113 H         1 <1>         0.0233 
     85 H48        -2.6756   10.8541   -4.6176 H         1 <1>         0.0233 
     86 H49        -0.0507    7.4890   -3.9230 H         1 <1>         0.0524 
     87 H50         0.0249    6.5641   -2.3756 H         1 <1>         0.0524 
     88 H51         1.4741    6.7918   -3.3712 H         1 <1>         0.0524 
     89 H52        -2.2704    8.4331   -4.4435 H         1 <1>         0.0524 
     90 H53        -3.7183    8.1341   -3.4693 H         1 <1>         0.0524 
     91 H54        -2.1895    7.4180   -2.9644 H         1 <1>         0.0524 
@<TRIPOS>BOND
     1    1    2 1    
     2    2    3 1    
     3    4    3 1    
     4    5    4 1    
     5    6    5 1    
     6    6    1 1    
     7    7    6 1    
     8    8    7 1    
     9    8    9 1    
    10    9   10 1    
    11   10   11 1    
    12   11   12 2    
    13   11    5 1    
    14   13    7 1    
    15   14   13 1    
    16   15   14 1    
    17   15   16 1    
    18   16    8 1    
    19   16   17 1    
    20   18   17 1    
    21   19   18 1    
    22   19   15 1    
    23    2   20 1    
    24    3   21 1    
    25   28   22 1    
    26    6   23 1    
    27   15   24 1    
    28   25   19 1    
    29   26   25 1    
    30   27   26 1    
    31   27   28 1    
    32   20   29 1    
    33   22   30 1    
    34   22   31 1    
    35   25   32 1    
    36   26   33 1    
    37   27   34 1    
    38   28   35 1    
    39   33   36 1    
    40   34   37 1    
    41    1   38 1    
    42    1   39 1    
    43    2   40 1    
    44    3   41 1    
    45    4   42 1    
    46    4   43 1    
    47    5   44 1    
    48    7   45 1    
    49    8   46 1    
    50    9   47 1    
    51    9   48 1    
    52   13   49 1    
    53   13   50 1    
    54   14   51 1    
    55   14   52 1    
    56   16   53 1    
    57   17   54 1    
    58   17   55 1    
    59   18   56 1    
    60   18   57 1    
    61   19   58 1    
    62   21   59 1    
    63   22   60 1    
    64   23   61 1    
    65   23   62 1    
    66   23   63 1    
    67   24   64 1    
    68   24   65 1    
    69   24   66 1    
    70   25   67 1    
    71   26   68 1    
    72   27   69 1    
    73   28   70 1    
    74   29   71 1    
    75   29   72 1    
    76   29   73 1    
    77   30   74 1    
    78   30   75 1    
    79   30   76 1    
    80   31   77 1    
    81   31   78 1    
    82   31   79 1    
    83   32   80 1    
    84   32   81 1    
    85   32   82 1    
    86   35   83 1    
    87   35   84 1    
    88   35   85 1    
    89   36   86 1    
    90   36   87 1    
    91   36   88 1    
    92   37   89 1    
    93   37   90 1    
    94   37   91 1    
@<TRIPOS>SUBSTRUCTURE
     1 ****        2 TEMP              0 ****  ****    0 ROOT 
@<TRIPOS>NORMAL
@<TRIPOS>FF_PBC
FORCE_FIELD_SETUP_FEATURE Force Field Setup information
v1.0  0 0.000000 0.000000 0.000000 0.000000 0.000000 0.000000 NONE 0 0 0 0 1 0 0 0 0 0 0 0 0
