#	Name:			PISM00444
#	Creating user name:	malab
#	Creation time:		Tue Apr 02 16:40:39 2019

#	Modifying user name:	malab
#	Modification time:	Tue Apr 02 16:41:30 2019

@<TRIPOS>MOLECULE
PISM00444
   50    49     1     1     0
SMALL
GAST_HUCK


@<TRIPOS>ATOM
      1 O1         -1.5066    4.1304    9.3156 O.3       1 <1>        -0.2927 
      2 C2         -1.9400    3.8208    8.0938 C.2       1 <1>         0.2312 
      3 O3         -2.9064    3.0973    7.9141 O.2       1 <1>        -0.3706 
      4 C4         -1.1576    4.4231    6.9564 C.3       1 <1>         0.0494 
      5 C5         -1.7247    4.0162    5.5698 C.3       1 <1>        -0.0239 
      6 C6         -0.9036    4.6481    4.4158 C.3       1 <1>         0.0113 
      7 C7         -1.4572    4.2502    3.1259 C.1       1 <1>        -0.1011 
      8 C8         -1.9143    3.9215    2.0623 C.1       1 <1>        -0.0894 
      9 C9         -2.4672    3.5240    0.7736 C.3       1 <1>         0.0705 
     10 C10        -1.6993    4.1524   -0.2939 C.1       1 <1>        -0.0885 
     11 C11        -1.0641    4.6723   -1.1743 C.1       1 <1>        -0.0885 
     12 C12        -0.2940    5.3025   -2.2392 C.3       1 <1>         0.0705 
     13 C13        -0.8283    4.8958   -3.5327 C.1       1 <1>        -0.0894 
     14 C14        -1.2683    4.5604   -4.6014 C.1       1 <1>        -0.1013 
     15 C15        -1.7991    4.1545   -5.8986 C.3       1 <1>         0.0092 
     16 C16        -0.9823    4.8120   -7.0414 C.3       1 <1>        -0.0422 
     17 C17        -0.9285    4.8282  -13.5150 C.3       1 <1>        -0.0559 
     18 C18        -0.1082    5.4843  -14.6561 C.3       1 <1>        -0.0653 
     19 C19        -1.5191    4.3880   -8.4357 C.3       1 <1>        -0.0522 
     20 C20        -0.6966    5.0406   -9.5804 C.3       1 <1>        -0.0530 
     21 C21        -1.2271    4.6110  -10.9757 C.3       1 <1>        -0.0531 
     22 C22        -0.4010    5.2606  -12.1197 C.3       1 <1>        -0.0533 
     23 H1         -2.0449    3.7174    9.9820 H         1 <1>         0.2539 
     24 H2         -0.1126    4.0882    7.0460 H         1 <1>         0.0518 
     25 H3         -1.1858    5.5184    7.0652 H         1 <1>         0.0518 
     26 H4         -2.7741    4.3473    5.4936 H         1 <1>         0.0300 
     27 H5         -1.7010    2.9176    5.4743 H         1 <1>         0.0300 
     28 H6          0.1450    4.3143    4.4567 H         1 <1>         0.0399 
     29 H7         -0.9303    5.7474    4.4763 H         1 <1>         0.0399 
     30 H8         -3.5168    3.8461    0.7095 H         1 <1>         0.0532 
     31 H9         -2.4108    2.4304    0.6718 H         1 <1>         0.0532 
     32 H10         0.7581    4.9912   -2.1635 H         1 <1>         0.0532 
     33 H11        -0.3619    6.3959   -2.1425 H         1 <1>         0.0532 
     34 H12        -2.8555    4.4607   -5.9506 H         1 <1>         0.0397 
     35 H13        -1.7428    3.0568   -5.9640 H         1 <1>         0.0397 
     36 H14         0.0746    4.5118   -6.9473 H         1 <1>         0.0274 
     37 H15        -1.0400    5.9088   -6.9419 H         1 <1>         0.0274 
     38 H16        -1.9865    5.1220  -13.6174 H         1 <1>         0.0263 
     39 H17        -0.8645    3.7312  -13.6101 H         1 <1>         0.0263 
     40 H18         0.9508    5.1905  -14.5862 H         1 <1>         0.0230 
     41 H19        -0.1754    6.5818  -14.5958 H         1 <1>         0.0230 
     42 H20        -0.4968    5.1630  -15.6355 H         1 <1>         0.0230 
     43 H21        -2.5755    4.6902   -8.5265 H         1 <1>         0.0266 
     44 H22        -1.4647    3.2907   -8.5275 H         1 <1>         0.0266 
     45 H23         0.3601    4.7411   -9.4855 H         1 <1>         0.0265 
     46 H24        -0.7538    6.1379   -9.4905 H         1 <1>         0.0265 
     47 H25        -2.2831    4.9124  -11.0725 H         1 <1>         0.0265 
     48 H26        -1.1717    3.5136  -11.0649 H         1 <1>         0.0265 
     49 H27         0.6557    4.9615  -12.0226 H         1 <1>         0.0265 
     50 H28        -0.4585    6.3582  -12.0331 H         1 <1>         0.0265 
@<TRIPOS>BOND
     1    2    1 1    
     2    2    3 2    
     3    2    4 1    
     4    4    5 1    
     5    5    6 1    
     6    6    7 1    
     7    7    8 3    
     8    8    9 1    
     9    9   10 1    
    10   10   11 3    
    11   11   12 1    
    12   12   13 1    
    13   13   14 3    
    14   14   15 1    
    15   15   16 1    
    16   16   19 1    
    17   22   17 1    
    18   17   18 1    
    19   19   20 1    
    20   20   21 1    
    21   21   22 1    
    22    1   23 1    
    23    4   24 1    
    24    4   25 1    
    25    5   26 1    
    26    5   27 1    
    27    6   28 1    
    28    6   29 1    
    29    9   30 1    
    30    9   31 1    
    31   12   32 1    
    32   12   33 1    
    33   15   34 1    
    34   15   35 1    
    35   16   36 1    
    36   16   37 1    
    37   17   38 1    
    38   17   39 1    
    39   18   40 1    
    40   18   41 1    
    41   18   42 1    
    42   19   43 1    
    43   19   44 1    
    44   20   45 1    
    45   20   46 1    
    46   21   47 1    
    47   21   48 1    
    48   22   49 1    
    49   22   50 1    
@<TRIPOS>SUBSTRUCTURE
     1 ****       19 TEMP              0 ****  ****    0 ROOT 
@<TRIPOS>NORMAL
@<TRIPOS>FF_PBC
FORCE_FIELD_SETUP_FEATURE Force Field Setup information
v1.0  0 0.000000 0.000000 0.000000 0.000000 0.000000 0.000000 NONE 0 0 0 0 1 0 0 0 0 0 0 0 0
