#	Name:			PISM00707
#	Creating user name:	baoopengkun
#	Creation time:		Thu Jan 24 22:58:43 2019

#	Modifying user name:	baoopengkun
#	Modification time:	Thu Jan 24 23:00:16 2019

@<TRIPOS>MOLECULE
PISM00707
   42    44     1     1     0
SMALL
GAST_HUCK


@<TRIPOS>ATOM
      1 C1         30.1791   -3.4600  -35.3070 C.ar      1 <1>         0.1375 
      2 F2         30.5957   -2.4781  -34.5121 F         1 <1>        -0.1794 
      3 C3         30.8784   -4.6676  -35.3542 C.ar      1 <1>        -0.0223 
      4 C4         30.4293   -5.7031  -36.1792 C.ar      1 <1>        -0.0437 
      5 C5         29.2773   -5.5439  -36.9590 C.ar      1 <1>         0.0458 
      6 C6         28.6018   -4.3168  -36.9327 C.ar      1 <1>        -0.0437 
      7 C7         29.0413   -3.2853  -36.0975 C.ar      1 <1>        -0.0223 
      8 C8         28.8014   -6.6996  -37.8166 C.2       1 <1>         0.2040 
      9 O9         29.6443   -7.4868  -38.2134 O.2       1 <1>        -0.3864 
     10 N10        27.4932   -6.8579  -38.1227 N.am      1 <1>        -0.2722 
     11 C11        27.0666   -7.9379  -39.0158 C.3       1 <1>         0.0778 
     12 C12        25.5278   -8.0393  -39.1292 C.ar      1 <1>        -0.0178 
     13 C13        24.9019   -9.2914  -39.0488 C.ar      1 <1>        -0.0581 
     14 C14        23.5113   -9.4072  -39.1361 C.ar      1 <1>        -0.0685 
     15 C15        22.7241   -8.2682  -39.3191 C.ar      1 <1>        -0.0687 
     16 C16        23.3365   -7.0166  -39.4155 C.ar      1 <1>        -0.0685 
     17 C17        24.7271   -6.9054  -39.3220 C.ar      1 <1>        -0.0581 
     18 C18        27.7424   -7.8232  -40.4197 C.3       1 <1>        -0.0081 
     19 C19        27.9647   -6.3744  -40.9396 C.3       1 <1>        -0.0463 
     20 C20        27.8341   -6.4587  -42.4880 C.3       1 <1>        -0.0526 
     21 C21        27.7511   -7.9705  -42.8114 C.3       1 <1>        -0.0526 
     22 C22        27.0014   -8.5306  -41.5820 C.3       1 <1>        -0.0463 
     23 H1         31.7684   -4.7965  -34.7475 H         1 <1>         0.0616 
     24 H2         30.9805   -6.6379  -36.2093 H         1 <1>         0.0659 
     25 H3         27.7386   -4.1441  -37.5654 H         1 <1>         0.0659 
     26 H4         28.5041   -2.3435  -36.0609 H         1 <1>         0.0616 
     27 H5         26.8010   -6.2726  -37.7076 H         1 <1>         0.1873 
     28 H6         27.4112   -8.8795  -38.5540 H         1 <1>         0.0722 
     29 H7         25.4902  -10.1946  -38.9202 H         1 <1>         0.0557 
     30 H8         23.0408  -10.3833  -39.0621 H         1 <1>         0.0599 
     31 H9         21.6439   -8.3547  -39.3861 H         1 <1>         0.0559 
     32 H10        22.7294   -6.1283  -39.5637 H         1 <1>         0.0599 
     33 H11        25.1690   -5.9201  -39.4047 H         1 <1>         0.0557 
     34 H12        28.7397   -8.2979  -40.3641 H         1 <1>         0.0345 
     35 H13        28.9597   -6.0022  -40.6405 H         1 <1>         0.0270 
     36 H14        27.2156   -5.6775  -40.5378 H         1 <1>         0.0270 
     37 H15        28.6678   -5.9695  -43.0185 H         1 <1>         0.0265 
     38 H16        26.8917   -5.9812  -42.8089 H         1 <1>         0.0265 
     39 H17        28.7655   -8.4017  -42.8589 H         1 <1>         0.0265 
     40 H18        27.2346   -8.1808  -43.7625 H         1 <1>         0.0265 
     41 H19        27.0447   -9.6299  -41.5130 H         1 <1>         0.0270 
     42 H20        25.9474   -8.2151  -41.6454 H         1 <1>         0.0270 
@<TRIPOS>BOND
     1    2    1 1    
     2    1    3 ar   
     3    3    4 ar   
     4    4    5 ar   
     5    6    5 ar   
     6    7    6 ar   
     7    1    7 ar   
     8    5    8 1    
     9    8    9 2    
    10    8   10 am   
    11   10   11 1    
    12   11   12 1    
    13   12   13 ar   
    14   13   14 ar   
    15   14   15 ar   
    16   15   16 ar   
    17   16   17 ar   
    18   12   17 ar   
    19   11   18 1    
    20   18   19 1    
    21   19   20 1    
    22   20   21 1    
    23   21   22 1    
    24   18   22 1    
    25    3   23 1    
    26    4   24 1    
    27    6   25 1    
    28    7   26 1    
    29   10   27 1    
    30   11   28 1    
    31   13   29 1    
    32   14   30 1    
    33   15   31 1    
    34   16   32 1    
    35   17   33 1    
    36   18   34 1    
    37   19   35 1    
    38   19   36 1    
    39   20   37 1    
    40   20   38 1    
    41   21   39 1    
    42   21   40 1    
    43   22   41 1    
    44   22   42 1    
@<TRIPOS>SUBSTRUCTURE
     1 ****        2 TEMP              0 ****  ****    0 ROOT 
@<TRIPOS>NORMAL
@<TRIPOS>FF_PBC
FORCE_FIELD_SETUP_FEATURE Force Field Setup information
v1.0  0 0.000000 0.000000 0.000000 0.000000 0.000000 0.000000 NONE 0 0 0 0 1 0 0 0 0 0 0 0 0
