#	Name:			PISM01056
#	Creating user name:	malab
#	Creation time:		Thu Jul 04 18:27:40 2019

#	Modifying user name:	malab
#	Modification time:	Thu Jul 04 18:39:06 2019

@<TRIPOS>MOLECULE
PISM01056
   49    50     1     1     0
SMALL
GAST_HUCK


@<TRIPOS>ATOM
      1 C1         -3.6975   -1.8901   29.9296 C.3       1 <1>        -0.1024 
      2 C2         -3.3570   -2.6178   28.5941 C.3       1 <1>        -0.1056 
      3 C3         -2.2468   -1.8804   27.8134 C.3       1 <1>        -0.0398 
      4 C4         -2.7606   -0.4665   27.4561 C.3       1 <1>         0.0378 
      5 C5         -3.4085    0.2464   28.6210 C.2       1 <1>         0.0467 
      6 C6         -3.8219   -0.3899   29.7310 C.2       1 <1>        -0.0677 
      7 C7         -5.0301   -2.4892   30.4715 C.3       1 <1>        -0.1223 
      8 C8         -2.5835   -2.1122   30.9964 C.3       1 <1>        -0.1223 
      9 O9         -3.6705    2.0642   27.0486 O.3       1 <1>        -0.3587 
     10 C10        -4.4129    0.3989   30.8287 C.2       1 <1>        -0.0854 
     11 C11        -3.6619    1.2202   31.5713 C.2       1 <1>        -0.0661 
     12 C12        -4.2072    2.0461   32.6688 C.2       1 <1>         0.0819 
     13 C13        -3.5691    1.7440   28.4509 C.3       1 <1>         0.1333 
     14 H1         -4.2514   -2.6531   27.9500 H         1 <1>         0.0057 
     15 C15        -3.7514    3.2976   32.8155 C.2       1 <1>         0.1117 
     16 C16        -5.2447    1.5302   33.5947 C.2       1 <1>         0.2420 
     17 O17        -2.8149    3.7628   31.9722 O.3       1 <1>        -0.2456 
     18 C18        -2.4554    5.1346   32.2050 C.3       1 <1>         0.2473 
     19 O19        -3.6218    5.9652   32.0365 O.3       1 <1>        -0.2289 
     20 C20        -3.3874    6.6781   30.9419 C.2       1 <1>         0.2497 
     21 O21        -4.2087    7.4589   30.4937 O.2       1 <1>        -0.3691 
     22 C22        -2.0838    6.4678   30.3224 C.2       1 <1>         0.0294 
     23 C23        -1.5165    5.5459   31.0978 C.2       1 <1>         0.0008 
     24 C24        -1.5116    7.1432   29.1062 C.3       1 <1>        -0.0323 
     25 H2         -3.0472   -3.6569   28.7915 H         1 <1>         0.0057 
     26 H3         -2.0017   -2.4319   26.8897 H         1 <1>         0.0307 
     27 H4         -1.3267   -1.8139   28.4130 H         1 <1>         0.0307 
     28 H5         -3.5187   -0.5418   26.6600 H         1 <1>         0.0724 
     29 H6         -1.9139    0.1239   27.0699 H         1 <1>         0.0724 
     30 H7         -4.9561   -3.5857   30.5370 H         1 <1>         0.0017 
     31 H8         -5.8637   -2.2360   29.7982 H         1 <1>         0.0017 
     32 H9         -5.2740   -2.1128   31.4758 H         1 <1>         0.0017 
     33 H10        -2.8846   -1.6863   31.9657 H         1 <1>         0.0017 
     34 H11        -1.6390   -1.6293   30.7090 H         1 <1>         0.0017 
     35 H12        -2.3964   -3.1868   31.1431 H         1 <1>         0.0017 
     36 H13        -3.7606    2.9972   26.8733 H         1 <1>         0.2178 
     37 H14        -5.4826    0.3030   31.0152 H         1 <1>         0.0435 
     38 H15        -2.5962    1.2925   31.3499 H         1 <1>         0.0568 
     39 H16        -2.6816    2.2320   28.8868 H         1 <1>         0.1028 
     40 H17        -4.4706    2.1140   28.9677 H         1 <1>         0.1028 
     41 O41        -5.9573    2.3162   34.1949 O.2       1 <1>        -0.3738 
     42 O42        -5.4208    0.2231   33.8112 O.3       1 <1>        -0.2980 
     43 H43        -4.7938   -0.3391   33.3739 H         1 <1>         0.2515 
     44 H18        -4.1642    3.9108   33.6219 H         1 <1>         0.1365 
     45 H19        -1.9919    5.2943   33.1936 H         1 <1>         0.1231 
     46 H20        -0.5181    5.1354   30.9512 H         1 <1>         0.0707 
     47 H21        -0.4605    7.4164   29.2830 H         1 <1>         0.0347 
     48 H22        -2.0821    8.0553   28.8746 H         1 <1>         0.0347 
     49 H23        -1.5672    6.4586   28.2469 H         1 <1>         0.0347 
@<TRIPOS>BOND
     1    2    1 1    
     2    2    3 1    
     3    3    4 1    
     4    4    5 1    
     5    5    6 2    
     6    1    6 1    
     7    1    7 1    
     8    1    8 1    
     9   13    9 1    
    10    6   10 1    
    11   10   11 2    
    12   11   12 1    
    13    5   13 1    
    14    2   14 1    
    15   12   15 2    
    16   12   16 1    
    17   15   17 1    
    18   17   18 1    
    19   18   19 1    
    20   19   20 1    
    21   20   21 2    
    22   20   22 1    
    23   22   23 2    
    24   18   23 1    
    25   22   24 1    
    26    2   25 1    
    27    3   26 1    
    28    3   27 1    
    29    4   28 1    
    30    4   29 1    
    31    7   30 1    
    32    7   31 1    
    33    7   32 1    
    34    8   33 1    
    35    8   34 1    
    36    8   35 1    
    37    9   36 1    
    38   10   37 1    
    39   11   38 1    
    40   13   39 1    
    41   13   40 1    
    42   16   41 2    
    43   16   42 1    
    44   42   43 1    
    45   15   44 1    
    46   18   45 1    
    47   23   46 1    
    48   24   47 1    
    49   24   48 1    
    50   24   49 1    
@<TRIPOS>SUBSTRUCTURE
     1 ****        2 TEMP              0 ****  ****    0 ROOT 
@<TRIPOS>NORMAL
@<TRIPOS>FF_PBC
FORCE_FIELD_SETUP_FEATURE Force Field Setup information
v1.0  0 0.000000 0.000000 0.000000 0.000000 0.000000 0.000000 NONE 0 0 0 0 1 0 0 0 0 0 0 0 0
