#	Name:			PISM00039
#	Creating user name:	baoopengkun
#	Creation time:		Tue Dec 11 21:57:32 2018

#	Modifying user name:	baoopengkun
#	Modification time:	Tue Dec 11 21:59:07 2018

@<TRIPOS>MOLECULE
PISM00039
   25    25     1     1     0
SMALL
GAST_HUCK


@<TRIPOS>ATOM
      1 C1          8.2634  -13.0593  -17.1433 C.ar      1 <1>        -0.0426 
      2 C2          7.9277  -11.8331  -17.7221 C.ar      1 <1>        -0.0364 
      3 C3          8.8583  -11.1350  -18.4971 C.ar      1 <1>         0.0671 
      4 C4         10.1487  -11.6519  -18.6790 C.ar      1 <1>         0.0815 
      5 C5         10.4838  -12.8686  -18.0708 C.ar      1 <1>        -0.0254 
      6 C6          9.5395  -13.5942  -17.3365 C.ar      1 <1>        -0.0021 
      7 C7          9.8786  -14.9405  -16.7333 C.2       1 <1>        -0.0193 
      8 C8         10.5004  -15.9274  -17.3933 C.2       1 <1>         0.0757 
      9 C9         10.8796  -15.8640  -18.8190 C.2       1 <1>         0.0169 
     10 N10        11.7504  -16.6962  -19.2440 N.2       1 <1>        -0.3476 
     11 C11        12.0412  -16.5380  -20.6567 C.3       1 <1>        -0.0078 
     12 Cl12       10.8768  -17.3965  -16.5125 Cl        1 <1>        -0.0661 
     13 Cl13        8.3591   -9.6169  -19.2191 Cl        1 <1>        -0.0594 
     14 C14        11.1975  -10.9398  -19.5105 C.2       1 <1>         0.2622 
     15 O15        10.9503   -9.7583  -20.0772 O.3       1 <1>        -0.2933 
     16 O16        12.2921  -11.4591  -19.6649 O.2       1 <1>        -0.3569 
     17 H1          7.5312  -13.5959  -16.5476 H         1 <1>         0.0702 
     18 H2          6.9354  -11.4196  -17.5708 H         1 <1>         0.0647 
     19 H3         11.4940  -13.2555  -18.1601 H         1 <1>         0.0726 
     20 H4          9.5913  -15.1039  -15.6945 H         1 <1>         0.0821 
     21 H5         10.3954  -15.1192  -19.4544 H         1 <1>         0.1048 
     22 H6         11.1496  -16.7186  -21.2791 H         1 <1>         0.0355 
     23 H7         12.8006  -17.2885  -20.9214 H         1 <1>         0.0355 
     24 H8         12.4537  -15.5402  -20.8789 H         1 <1>         0.0355 
     25 H9         11.6980   -9.4328  -20.5667 H         1 <1>         0.2523 
@<TRIPOS>BOND
     1    2    1 ar   
     2    2    3 ar   
     3    3    4 ar   
     4    4    5 ar   
     5    5    6 ar   
     6    1    6 ar   
     7    6    7 1    
     8    7    8 2    
     9    8    9 1    
    10    9   10 2    
    11   10   11 1    
    12    8   12 1    
    13    3   13 1    
    14    4   14 1    
    15   14   15 1    
    16   14   16 2    
    17    1   17 1    
    18    2   18 1    
    19    5   19 1    
    20    7   20 1    
    21    9   21 1    
    22   11   22 1    
    23   11   23 1    
    24   11   24 1    
    25   15   25 1    
@<TRIPOS>SUBSTRUCTURE
     1 ****        2 TEMP              0 ****  ****    0 ROOT 
@<TRIPOS>NORMAL
@<TRIPOS>FF_PBC
FORCE_FIELD_SETUP_FEATURE Force Field Setup information
v1.0  0 0.000000 0.000000 0.000000 0.000000 0.000000 0.000000 NONE 0 0 0 0 1 0 0 0 0 0 0 0 0
