#	Name:			PISM00151
#	Creating user name:	14062
#	Creation time:		Sun Oct 20 21:25:07 2019

#	Modifying user name:	14062
#	Modification time:	Sun Oct 20 21:25:53 2019

@<TRIPOS>MOLECULE
PISM00151
   23    23     1     2     0
SMALL
GAST_HUCK


@<TRIPOS>ATOM
      1 C           1.6180   -1.5121    0.4501 C.ar      1 <1>         0.1267 
      2 C           0.8096   -0.3752    0.3237 C.ar      1 <1>         0.0447 
      3 C           1.3967    0.8815    0.1386 C.ar      1 <1>        -0.0353 
      4 C           2.7863    1.0097    0.0835 C.ar      1 <1>         0.0381 
      5 C           3.5934   -0.1208    0.2251 C.ar      1 <1>        -0.0349 
      6 C           3.0138   -1.3776    0.4184 C.ar      1 <1>         0.0785 
      7 CL          4.0641   -2.7676    0.6238 Cl        1 <1>        -0.0766 
      8 CL          3.5152    2.5835   -0.1613 Cl        1 <1>        -0.0785 
      9 C          -0.6982   -0.4990    0.3849 C.2       1 <1>         0.0132 
     10 N          -1.4114    0.5531    0.2541 N.2       1 <1>        -0.3409 
     11 C          -2.8370    0.2860    0.3339 C.3       1 <1>         0.0273 
     12 C          -3.5846    1.6285    0.1640 C.3       1 <1>         0.0544 
     13 O          -5.0028    1.3891    0.2384 O.3       1 <1>        -0.3941 
     14 O           1.0148   -2.7645    0.6115 O.3       1 <1>        -0.3227 
     15 H1          0.7777    1.7667    0.0360 H         1 <1>         0.0671 
     16 H2          4.6729   -0.0214    0.1861 H         1 <1>         0.0662 
     17 H3         -1.1145   -1.4975    0.5408 H         1 <1>         0.1077 
     18 H4         -3.1128   -0.1440    1.3121 H         1 <1>         0.0413 
     19 H5         -3.1643   -0.3979   -0.4680 H         1 <1>         0.0413 
     20 H6         -3.3133    2.0661   -0.8119 H         1 <1>         0.0566 
     21 H7         -3.2628    2.3188    0.9625 H         1 <1>         0.0566 
     22 H8         -5.5188    2.1838    0.1401 H         1 <1>         0.2094 
     23 H9          1.5186   -3.4880    0.2561 H         1 <1>         0.2540 
@<TRIPOS>BOND
     1    2    1 ar   
     2    2    3 ar   
     3    3    4 ar   
     4    4    5 ar   
     5    6    5 ar   
     6    1    6 ar   
     7    6    7 1    
     8    4    8 1    
     9    9   10 2    
    10   10   11 1    
    11   11   12 1    
    12   12   13 1    
    13    2    9 1    
    14    1   14 1    
    15    3   15 1    
    16    5   16 1    
    17    9   17 1    
    18   11   18 1    
    19   11   19 1    
    20   12   20 1    
    21   12   21 1    
    22   13   22 1    
    23   14   23 1    
@<TRIPOS>SUBSTRUCTURE
     1 ****        1 TEMP              0 ****  ****    0 ROOT 
@<TRIPOS>NORMAL
@<TRIPOS>FF_PBC
FORCE_FIELD_SETUP_FEATURE Force Field Setup information
v1.0  0 0.000000 0.000000 0.000000 0.000000 0.000000 0.000000 NONE 0 0 0 0 1 0 0 0 0 0 0 0 0
@<TRIPOS>RENDERING_ATTRS
ANTIALIASED_LINES 
*
