#	Name:			PISM01170
#	Creating user name:	baoopengkun
#	Creation time:		Tue Dec 18 16:46:58 2018

#	Modifying user name:	baoopengkun
#	Modification time:	Tue Dec 18 16:49:29 2018

@<TRIPOS>MOLECULE
PISM01170
   75    75     1     1     0
SMALL
GAST_HUCK


@<TRIPOS>ATOM
      1 O1          1.6565   36.0890   -0.3317 O.2       1 <1>        -0.3725 
      2 C2          2.4707   36.8773   -0.7857 C.2       1 <1>         0.1245 
      3 H3          2.5150   37.8866   -0.3764 H         1 <1>         0.1373 
      4 C4          3.3911   36.4518   -1.9049 C.3       1 <1>         0.1130 
      5 C5          3.0071   37.2211   -3.1992 C.3       1 <1>        -0.0114 
      6 C6          3.8787   36.8626   -4.4409 C.3       1 <1>        -0.0425 
      7 C7          5.3442   37.3622   -4.2941 C.3       1 <1>        -0.0624 
      8 C8          3.2510   37.4821   -5.7219 C.3       1 <1>        -0.0624 
      9 N9          3.2315   35.0137   -2.1210 N.am      1 <1>        -0.2650 
     10 C10         4.3055   34.2116   -2.2919 C.2       1 <1>         0.2040 
     11 O11         5.4498   34.6344   -2.2817 O.2       1 <1>        -0.3944 
     12 C12         4.1059   32.7277   -2.5050 C.3       1 <1>         0.1312 
     13 N13         5.3752   32.1018   -2.8797 N.am      1 <1>        -0.2637 
     14 C14         5.3875   30.8639   -3.4197 C.2       1 <1>         0.2039 
     15 O15         4.3595   30.2289   -3.5921 O.2       1 <1>        -0.3944 
     16 C16         6.6930   30.2152   -3.8297 C.3       1 <1>         0.1331 
     17 N17         6.4363   28.8579   -4.3147 N.am      1 <1>        -0.2411 
     18 C18         7.4380   27.9478   -4.3459 C.2       1 <1>         0.3239 
     19 O19         8.5405   28.2421   -3.9181 O.2       1 <1>        -0.3773 
     20 O20         7.3172   26.6953   -4.8221 O.3       1 <1>        -0.2506 
     21 C21         6.0810   26.3468   -5.4744 C.3       1 <1>         0.1113 
     22 C22         5.8714   27.1776   -6.7487 C.ar      1 <1>        -0.0130 
     23 C23         4.6436   27.7907   -7.0251 C.ar      1 <1>        -0.0578 
     24 C24         4.4959   28.5910   -8.1618 C.ar      1 <1>        -0.0685 
     25 C25         5.5668   28.7595   -9.0438 C.ar      1 <1>        -0.0687 
     26 C26         6.7825   28.1175   -8.7930 C.ar      1 <1>        -0.0685 
     27 C27         6.9325   27.3292   -7.6483 C.ar      1 <1>        -0.0578 
     28 C28         7.4789   31.0202   -4.9080 C.3       1 <1>        -0.0101 
     29 C29         5.4675   31.4949   -6.4830 C.3       1 <1>        -0.0625 
     30 C30         6.9064   30.9225   -6.3547 C.3       1 <1>        -0.0425 
     31 C31         3.4460   32.0647   -1.2584 C.3       1 <1>        -0.0101 
     32 C32         4.0552   32.4640    0.1210 C.3       1 <1>        -0.0425 
     33 C33         3.2522   31.7780    1.2632 C.3       1 <1>        -0.0625 
     34 C34         5.5567   32.0841    0.2408 C.3       1 <1>        -0.0625 
     35 C35         7.8501   31.6579   -7.3482 C.3       1 <1>        -0.0625 
     36 H1          4.4093   36.7157   -1.5776 H         1 <1>         0.0790 
     37 H2          3.0651   38.3065   -3.0181 H         1 <1>         0.0316 
     38 H4          1.9560   36.9716   -3.4188 H         1 <1>         0.0316 
     39 H5          3.8893   35.7665   -4.5717 H         1 <1>         0.0298 
     40 H6          5.9182   37.1284   -5.2041 H         1 <1>         0.0232 
     41 H7          5.8570   36.8831   -3.4492 H         1 <1>         0.0232 
     42 H8          5.3646   38.4520   -4.1417 H         1 <1>         0.0232 
     43 H9          3.2140   38.5792   -5.6391 H         1 <1>         0.0232 
     44 H10         2.2266   37.1078   -5.8743 H         1 <1>         0.0232 
     45 H11         3.8445   37.2185   -6.6113 H         1 <1>         0.0232 
     46 H12         2.2961   34.6555   -2.1333 H         1 <1>         0.1884 
     47 H13         3.4241   32.6306   -3.3675 H         1 <1>         0.0800 
     48 H14         6.2141   32.6320   -2.7437 H         1 <1>         0.1883 
     49 H15         7.2840   30.1767   -2.8986 H         1 <1>         0.0799 
     50 H16         5.5015   28.6804   -4.6122 H         1 <1>         0.1899 
     51 H17         5.2284   26.3794   -4.7776 H         1 <1>         0.0776 
     52 H18         6.1881   25.3011   -5.7999 H         1 <1>         0.0776 
     53 H19         3.7981   27.6525   -6.3587 H         1 <1>         0.0557 
     54 H20         3.5484   29.0828   -8.3598 H         1 <1>         0.0599 
     55 H21         5.4545   29.3878   -9.9221 H         1 <1>         0.0559 
     56 H22         7.6107   28.2337   -9.4854 H         1 <1>         0.0599 
     57 H23         7.8806   26.8364   -7.4567 H         1 <1>         0.0557 
     58 H24         8.5038   30.6153   -4.9311 H         1 <1>         0.0315 
     59 H25         7.5581   32.0791   -4.6209 H         1 <1>         0.0315 
     60 H26         5.1673   31.5470   -7.5409 H         1 <1>         0.0232 
     61 H27         5.4160   32.5077   -6.0549 H         1 <1>         0.0232 
     62 H28         4.7367   30.8531   -5.9740 H         1 <1>         0.0232 
     63 H29         6.8857   29.8626   -6.6503 H         1 <1>         0.0298 
     64 H30         3.4841   30.9701   -1.3648 H         1 <1>         0.0315 
     65 H31         2.3814   32.3502   -1.2446 H         1 <1>         0.0315 
     66 H32         3.9583   33.5552    0.2634 H         1 <1>         0.0298 
     67 H33         3.6363   32.0856    2.2484 H         1 <1>         0.0232 
     68 H34         3.3325   30.6828    1.1845 H         1 <1>         0.0232 
     69 H35         2.1878   32.0564    1.2131 H         1 <1>         0.0232 
     70 H36         5.7127   31.0310   -0.0390 H         1 <1>         0.0232 
     71 H37         5.9101   32.2272    1.2737 H         1 <1>         0.0232 
     72 H38         6.1760   32.7220   -0.4032 H         1 <1>         0.0232 
     73 H39         7.8930   32.7320   -7.1108 H         1 <1>         0.0232 
     74 H40         8.8699   31.2455   -7.2965 H         1 <1>         0.0232 
     75 H41         7.4912   31.5418   -8.3831 H         1 <1>         0.0232 
@<TRIPOS>BOND
     1    2    1 2    
     2    2    3 1    
     3    2    4 1    
     4    4    5 1    
     5    5    6 1    
     6    6    7 1    
     7    6    8 1    
     8    4    9 1    
     9    9   10 am   
    10   10   11 2    
    11   10   12 1    
    12   12   13 1    
    13   13   14 am   
    14   14   15 2    
    15   14   16 1    
    16   16   17 1    
    17   17   18 am   
    18   18   19 2    
    19   18   20 1    
    20   20   21 1    
    21   21   22 1    
    22   22   23 ar   
    23   23   24 ar   
    24   24   25 ar   
    25   25   26 ar   
    26   26   27 ar   
    27   22   27 ar   
    28   16   28 1    
    29   30   29 1    
    30   28   30 1    
    31   12   31 1    
    32   31   32 1    
    33   32   33 1    
    34   32   34 1    
    35   30   35 1    
    36    4   36 1    
    37    5   37 1    
    38    5   38 1    
    39    6   39 1    
    40    7   40 1    
    41    7   41 1    
    42    7   42 1    
    43    8   43 1    
    44    8   44 1    
    45    8   45 1    
    46    9   46 1    
    47   12   47 1    
    48   13   48 1    
    49   16   49 1    
    50   17   50 1    
    51   21   51 1    
    52   21   52 1    
    53   23   53 1    
    54   24   54 1    
    55   25   55 1    
    56   26   56 1    
    57   27   57 1    
    58   28   58 1    
    59   28   59 1    
    60   29   60 1    
    61   29   61 1    
    62   29   62 1    
    63   30   63 1    
    64   31   64 1    
    65   31   65 1    
    66   32   66 1    
    67   33   67 1    
    68   33   68 1    
    69   33   69 1    
    70   34   70 1    
    71   34   71 1    
    72   34   72 1    
    73   35   73 1    
    74   35   74 1    
    75   35   75 1    
@<TRIPOS>SUBSTRUCTURE
     1 ****        2 TEMP              0 ****  ****    0 ROOT 
@<TRIPOS>NORMAL
@<TRIPOS>FF_PBC
FORCE_FIELD_SETUP_FEATURE Force Field Setup information
v1.0  0 0.000000 0.000000 0.000000 0.000000 0.000000 0.000000 NONE 0 0 0 0 1 0 0 0 0 0 0 0 0
