#	Name:			PISM00517
#	Creating user name:	malab
#	Creation time:		Fri Apr 05 22:29:19 2019

#	Modifying user name:	malab
#	Modification time:	Fri Apr 05 22:30:05 2019

@<TRIPOS>MOLECULE
PISM00517
  106   110     1     1     0
SMALL
GAST_HUCK


@<TRIPOS>ATOM
      1 C1         16.2647   16.2478  -14.9392 C.3       1 <1>        -0.0586 
      2 C2         17.4027   15.4050  -15.5687 C.3       1 <1>        -0.0393 
      3 C3         18.2677   14.7254  -14.5326 C.2       1 <1>        -0.0988 
      4 C4         19.2393   13.8489  -14.8251 C.2       1 <1>        -0.0961 
      5 C5         19.6388   13.4195  -16.2220 C.3       1 <1>        -0.0173 
      6 C6         21.1815   13.4733  -16.4199 C.3       1 <1>         0.0440 
      7 C7         21.5182   13.3502  -17.8759 C.2       1 <1>         0.1101 
      8 O8         21.6830   12.2759  -18.4303 O.2       1 <1>        -0.3911 
      9 C9         21.6624   14.6708  -18.5812 C.3       1 <1>         0.0221 
     10 C10        21.4605   15.6836  -17.4231 C.3       1 <1>        -0.0297 
     11 C11        21.8032   14.8739  -16.1458 C.3       1 <1>        -0.0019 
     12 C12        23.3540   14.8199  -15.9194 C.3       1 <1>         0.0428 
     13 C13        23.7509   15.8817  -14.9169 C.2       1 <1>         0.1787 
     14 O14        23.2484   16.9831  -15.0619 O.2       1 <1>        -0.3969 
     15 N15        24.6052   15.5452  -13.9139 N.am      1 <1>        -0.2653 
     16 C16        24.6753   16.2554  -12.6255 C.3       1 <1>         0.1334 
     17 C17        23.9858   17.6596  -12.4808 C.3       1 <1>        -0.0037 
     18 C18        24.5380   18.5100  -11.2901 C.3       1 <1>        -0.0491 
     19 C19        23.9354   19.9440  -11.2367 C.3       1 <1>        -0.0648 
     20 C20        22.4359   17.5189  -12.3607 C.3       1 <1>        -0.0582 
     21 C21        24.0149   15.2762  -11.6794 C.2       1 <1>         0.2042 
     22 O22        23.2140   14.4907  -12.1663 O.2       1 <1>        -0.3944 
     23 N23        24.3048   15.2801  -10.3578 N.am      1 <1>        -0.2624 
     24 C24        23.5401   14.4286   -9.4453 C.3       1 <1>         0.1420 
     25 C25        23.6479   13.0094   -9.9609 C.2       1 <1>         0.2571 
     26 O26        22.6720   12.3446  -10.2669 O.2       1 <1>        -0.3680 
     27 O27        24.8727   12.4905  -10.1083 O.3       1 <1>        -0.2910 
     28 C28        22.1027   15.0154   -9.3518 C.3       1 <1>        -0.0110 
     29 C29        21.1300   14.2760   -8.3888 C.3       1 <1>        -0.0469 
     30 C30        19.7197   14.9160   -8.5291 C.3       1 <1>        -0.0327 
     31 C31        18.6165   14.2146   -7.6996 C.3       1 <1>         0.0297 
     32 N32        17.3659   14.8881   -8.0642 N.am      1 <1>        -0.2897 
     33 C33        17.0628   16.0932   -7.5125 C.2       1 <1>         0.1986 
     34 O34        17.7279   16.4991   -6.5734 O.2       1 <1>        -0.3967 
     35 C35        15.9733   16.9905   -7.9997 C.2       1 <1>         0.1218 
     36 C36        15.8775   18.3576   -7.4223 C.2       1 <1>         0.2710 
     37 O37        16.6646   18.7364   -6.5705 O.2       1 <1>        -0.3781 
     38 O38        14.9366   19.2296   -7.8065 O.3       1 <1>        -0.2173 
     39 C39        14.0109   18.9027   -8.7966 C.ar      1 <1>         0.1327 
     40 C40        14.0468   17.6470   -9.4021 C.ar      1 <1>         0.0108 
     41 C41        15.0833   16.6467   -8.9400 C.2       1 <1>        -0.0270 
     42 C42        13.0446   19.8412   -9.1811 C.ar      1 <1>         0.0161 
     43 C43        12.0795   19.5272  -10.1487 C.ar      1 <1>         0.0498 
     44 C44        12.1726   18.2876  -10.8023 C.ar      1 <1>        -0.0288 
     45 C45        13.1366   17.3500  -10.4161 C.ar      1 <1>        -0.0641 
     46 C46        11.2323   17.9166  -11.9537 C.3       1 <1>        -0.0238 
     47 C47        10.5915   19.1893  -12.5437 C.3       1 <1>        -0.0262 
     48 C48        10.0063   20.0118  -11.3758 C.3       1 <1>         0.0277 
     49 N49        11.0669   20.3963  -10.4423 N.pl3     1 <1>        -0.3105 
     50 C50        11.0279   21.7414   -9.8605 C.3       1 <1>         0.0275 
     51 C51        12.4330   22.2509   -9.4741 C.3       1 <1>        -0.0269 
     52 C52        13.0692   21.2228   -8.5195 C.3       1 <1>        -0.0218 
     53 H1         16.6855   17.0516  -14.3164 H         1 <1>         0.0249 
     54 H2         15.6189   15.6136  -14.3143 H         1 <1>         0.0249 
     55 H3         15.6501   16.7028  -15.7315 H         1 <1>         0.0249 
     56 H4         18.0313   16.0709  -16.1839 H         1 <1>         0.0385 
     57 H5         16.9477   14.6403  -16.2187 H         1 <1>         0.0385 
     58 H6         18.0894   14.9637  -13.4829 H         1 <1>         0.0450 
     59 H7         19.7943   13.4018  -13.9972 H         1 <1>         0.0452 
     60 H8         19.1455   14.0227  -16.9967 H         1 <1>         0.0416 
     61 H9         19.2980   12.3799  -16.3629 H         1 <1>         0.0416 
     62 H10        21.6468   12.6825  -15.8090 H         1 <1>         0.0554 
     63 H11        20.9176   14.7894  -19.3835 H         1 <1>         0.0494 
     64 H12        22.6741   14.7434  -19.0111 H         1 <1>         0.0494 
     65 H13        20.4090   16.0029  -17.3859 H         1 <1>         0.0296 
     66 H14        22.0776   16.5869  -17.5352 H         1 <1>         0.0296 
     67 H15        21.3238   15.3134  -15.2559 H         1 <1>         0.0356 
     68 H16        23.9228   14.9766  -16.8480 H         1 <1>         0.0507 
     69 H17        23.6385   13.8312  -15.5275 H         1 <1>         0.0507 
     70 H18        25.1080   14.6779  -13.9561 H         1 <1>         0.1883 
     71 H19        25.7429   16.3511  -12.3625 H         1 <1>         0.0803 
     72 H20        24.2618   18.2392  -13.3766 H         1 <1>         0.0345 
     73 H21        25.6329   18.6007  -11.3858 H         1 <1>         0.0267 
     74 H22        24.3114   18.0244  -10.3296 H         1 <1>         0.0267 
     75 H23        24.0806   20.4564  -12.2006 H         1 <1>         0.0230 
     76 H24        24.4330   20.5357  -10.4528 H         1 <1>         0.0230 
     77 H25        22.8584   19.9235  -11.0031 H         1 <1>         0.0230 
     78 H26        21.9299   18.4526  -12.6407 H         1 <1>         0.0235 
     79 H27        22.1636   17.2798  -11.3263 H         1 <1>         0.0235 
     80 H28        22.0293   16.7154  -12.9870 H         1 <1>         0.0235 
     81 H29        25.0219   15.8684   -9.9833 H         1 <1>         0.1885 
     82 H30        23.9893   14.4511   -8.4405 H         1 <1>         0.0816 
     83 H31        25.5819   13.0800   -9.8684 H         1 <1>         0.2540 
     84 H32        21.6542   15.0016  -10.3569 H         1 <1>         0.0313 
     85 H33        22.1885   16.0681   -9.0288 H         1 <1>         0.0313 
     86 H34        21.4839   14.3568   -7.3469 H         1 <1>         0.0268 
     87 H35        21.0569   13.2096   -8.6520 H         1 <1>         0.0268 
     88 H36        19.3970   14.8665   -9.5828 H         1 <1>         0.0285 
     89 H37        19.7772   15.9773   -8.2372 H         1 <1>         0.0285 
     90 H38        18.8346   14.2845   -6.6193 H         1 <1>         0.0518 
     91 H39        18.5791   13.1434   -7.9663 H         1 <1>         0.0518 
     92 H40        16.8447   14.4788   -8.8112 H         1 <1>         0.1833 
     93 H41        15.0579   15.6694   -9.4124 H         1 <1>         0.0831 
     94 H42        13.1788   16.3827  -10.9083 H         1 <1>         0.0500 
     95 H43        10.4544   17.2446  -11.5563 H         1 <1>         0.0387 
     96 H44        11.7818   17.3874  -12.7495 H         1 <1>         0.0387 
     97 H45         9.8051   18.9175  -13.2686 H         1 <1>         0.0302 
     98 H46        11.3558   19.7930  -13.0601 H         1 <1>         0.0302 
     99 H47         9.2603   19.4152  -10.8247 H         1 <1>         0.0515 
    100 H48         9.4826   20.8819  -11.8064 H         1 <1>         0.0515 
    101 H49        10.3843   21.7037   -8.9661 H         1 <1>         0.0515 
    102 H50        10.5963   22.4801  -10.5570 H         1 <1>         0.0515 
    103 H51        12.3690   23.2395   -8.9866 H         1 <1>         0.0301 
    104 H52        13.0499   22.3463  -10.3834 H         1 <1>         0.0301 
    105 H53        12.5051   21.1676   -7.5755 H         1 <1>         0.0377 
    106 H54        14.0998   21.5417   -8.2974 H         1 <1>         0.0377 
@<TRIPOS>BOND
     1    2    1 1    
     2    2    3 1    
     3    3    4 2    
     4    4    5 1    
     5    5    6 1    
     6    6    7 1    
     7    7    8 2    
     8    7    9 1    
     9    9   10 1    
    10   10   11 1    
    11    6   11 1    
    12   11   12 1    
    13   12   13 1    
    14   13   14 2    
    15   13   15 am   
    16   15   16 1    
    17   16   17 1    
    18   17   18 1    
    19   18   19 1    
    20   17   20 1    
    21   16   21 1    
    22   21   22 2    
    23   21   23 am   
    24   23   24 1    
    25   24   25 1    
    26   25   26 2    
    27   25   27 1    
    28   24   28 1    
    29   28   29 1    
    30   29   30 1    
    31   30   31 1    
    32   31   32 1    
    33   32   33 am   
    34   33   34 2    
    35   33   35 1    
    36   35   36 1    
    37   36   37 2    
    38   36   38 1    
    39   38   39 1    
    40   39   40 ar   
    41   40   41 1    
    42   35   41 2    
    43   39   42 ar   
    44   42   43 ar   
    45   43   44 ar   
    46   44   45 ar   
    47   40   45 ar   
    48   44   46 1    
    49   46   47 1    
    50   47   48 1    
    51   48   49 1    
    52   43   49 1    
    53   49   50 1    
    54   50   51 1    
    55   51   52 1    
    56   42   52 1    
    57    1   53 1    
    58    1   54 1    
    59    1   55 1    
    60    2   56 1    
    61    2   57 1    
    62    3   58 1    
    63    4   59 1    
    64    5   60 1    
    65    5   61 1    
    66    6   62 1    
    67    9   63 1    
    68    9   64 1    
    69   10   65 1    
    70   10   66 1    
    71   11   67 1    
    72   12   68 1    
    73   12   69 1    
    74   15   70 1    
    75   16   71 1    
    76   17   72 1    
    77   18   73 1    
    78   18   74 1    
    79   19   75 1    
    80   19   76 1    
    81   19   77 1    
    82   20   78 1    
    83   20   79 1    
    84   20   80 1    
    85   23   81 1    
    86   24   82 1    
    87   27   83 1    
    88   28   84 1    
    89   28   85 1    
    90   29   86 1    
    91   29   87 1    
    92   30   88 1    
    93   30   89 1    
    94   31   90 1    
    95   31   91 1    
    96   32   92 1    
    97   41   93 1    
    98   45   94 1    
    99   46   95 1    
   100   46   96 1    
   101   47   97 1    
   102   47   98 1    
   103   48   99 1    
   104   48  100 1    
   105   50  101 1    
   106   50  102 1    
   107   51  103 1    
   108   51  104 1    
   109   52  105 1    
   110   52  106 1    
@<TRIPOS>SUBSTRUCTURE
     1 ****        2 TEMP              0 ****  ****    0 ROOT 
@<TRIPOS>NORMAL
@<TRIPOS>FF_PBC
FORCE_FIELD_SETUP_FEATURE Force Field Setup information
v1.0  0 0.000000 0.000000 0.000000 0.000000 0.000000 0.000000 NONE 0 0 0 0 0 0 0 0 0 0 0 0 0
