#	Name:			PISM00922.1
#	Creating user name:	baoopengkun
#	Creation time:		Fri Dec 14 10:31:16 2018

#	Modifying user name:	baoopengkun
#	Modification time:	Fri Dec 14 11:06:44 2018

@<TRIPOS>MOLECULE
PISM00922.1
   46    48     1     1     0
SMALL
GAST_HUCK


@<TRIPOS>ATOM
      1 C1         29.4258    8.0646  -19.2355 C.ar      1 <1>        -0.0145 
      2 C2         29.6115    6.7815  -19.7698 C.ar      1 <1>         0.0720 
      3 C3         28.7715    5.7245  -19.3755 C.ar      1 <1>        -0.0299 
      4 C4         27.7694    5.9039  -18.4129 C.ar      1 <1>        -0.0474 
      5 C5         27.6092    7.1844  -17.8864 C.ar      1 <1>         0.0608 
      6 C6         28.4149    8.2380  -18.2913 C.ar      1 <1>         0.0637 
      7 C7         27.9349    9.4386  -17.5144 C.2       1 <1>         0.2418 
      8 N8         26.9144    9.0791  -16.7113 N.am      1 <1>        -0.1418 
      9 C9         26.6606    7.7661  -16.8679 C.2       1 <1>         0.2355 
     10 O10        28.4143   10.5543  -17.6215 O.2       1 <1>        -0.3668 
     11 O11        25.7990    7.1279  -16.2883 O.2       1 <1>        -0.3726 
     12 C12        26.2222    9.9616  -15.7892 C.3       1 <1>         0.2214 
     13 O13        27.1109   10.2844  -14.7010 O.3       1 <1>        -0.2348 
     14 C14        27.2881   11.5982  -14.7723 C.2       1 <1>         0.2491 
     15 C15        26.5666   12.2715  -15.8468 C.2       1 <1>         0.0288 
     16 C16        25.9178   11.2814  -16.4566 C.2       1 <1>        -0.0059 
     17 C17        26.5643   13.7353  -16.1919 C.3       1 <1>        -0.0323 
     18 O18        28.0000   12.1958  -13.9834 O.2       1 <1>        -0.3691 
     19 N19        30.6024    6.5840  -20.6746 N.pl3     1 <1>        -0.2358 
     20 C20        31.4130    5.5608  -20.5993 C.2       1 <1>         0.2019 
     21 O21        31.3431    4.7292  -19.7099 O.2       1 <1>        -0.3789 
     22 C22        32.4883    5.4080  -21.6511 C.3       1 <1>         0.0429 
     23 C23        33.3611    4.1397  -21.4447 C.3       1 <1>        -0.0354 
     24 C24        34.4466    4.0098  -22.5482 C.3       1 <1>        -0.0512 
     25 C25        35.3165    2.7406  -22.3374 C.3       1 <1>        -0.0558 
     26 C26        36.3997    2.6103  -23.4396 C.3       1 <1>        -0.0653 
     27 H1         30.0464    8.9015  -19.5365 H         1 <1>         0.0597 
     28 H2         28.8866    4.7442  -19.8263 H         1 <1>         0.0574 
     29 H3         27.1369    5.0847  -18.0865 H         1 <1>         0.0651 
     30 H4         25.2985    9.5068  -15.3939 H         1 <1>         0.1152 
     31 H5         25.2653   11.4009  -17.3205 H         1 <1>         0.0702 
     32 H6         26.6688   13.8651  -17.2795 H         1 <1>         0.0347 
     33 H7         27.4009   14.2449  -15.6908 H         1 <1>         0.0347 
     34 H8         25.6184   14.1896  -15.8622 H         1 <1>         0.0347 
     35 H9         30.7289    7.2773  -21.4272 H         1 <1>         0.2126 
     36 H10        33.1320    6.3010  -21.6204 H         1 <1>         0.0511 
     37 H11        32.0018    5.3572  -22.6377 H         1 <1>         0.0511 
     38 H12        32.7122    3.2482  -21.4632 H         1 <1>         0.0290 
     39 H13        33.8477    4.1929  -20.4566 H         1 <1>         0.0290 
     40 H14        35.0949    4.9013  -22.5305 H         1 <1>         0.0267 
     41 H15        33.9595    3.9560  -23.5358 H         1 <1>         0.0267 
     42 H16        34.6738    1.8445  -22.3564 H         1 <1>         0.0263 
     43 H17        35.8097    2.7899  -21.3522 H         1 <1>         0.0263 
     44 H18        37.0678    3.4855  -23.4274 H         1 <1>         0.0230 
     45 H19        35.9304    2.5373  -24.4331 H         1 <1>         0.0230 
     46 H20        37.0050    1.7055  -23.2711 H         1 <1>         0.0230 
@<TRIPOS>BOND
     1    2    1 ar   
     2    2    3 ar   
     3    3    4 ar   
     4    4    5 ar   
     5    6    5 ar   
     6    1    6 ar   
     7    6    7 1    
     8    7    8 am   
     9    9    8 am   
    10    5    9 1    
    11    7   10 2    
    12    9   11 2    
    13    8   12 1    
    14   12   13 1    
    15   13   14 1    
    16   15   14 1    
    17   16   15 2    
    18   12   16 1    
    19   15   17 1    
    20   14   18 2    
    21    2   19 1    
    22   19   20 1    
    23   20   21 2    
    24   20   22 1    
    25   22   23 1    
    26   23   24 1    
    27   24   25 1    
    28   25   26 1    
    29    1   27 1    
    30    3   28 1    
    31    4   29 1    
    32   12   30 1    
    33   16   31 1    
    34   17   32 1    
    35   17   33 1    
    36   17   34 1    
    37   19   35 1    
    38   22   36 1    
    39   22   37 1    
    40   23   38 1    
    41   23   39 1    
    42   24   40 1    
    43   24   41 1    
    44   25   42 1    
    45   25   43 1    
    46   26   44 1    
    47   26   45 1    
    48   26   46 1    
@<TRIPOS>SUBSTRUCTURE
     1 ****        2 TEMP              0 ****  ****    0 ROOT 
@<TRIPOS>NORMAL
@<TRIPOS>FF_PBC
FORCE_FIELD_SETUP_FEATURE Force Field Setup information
v1.0  0 0.000000 0.000000 0.000000 0.000000 0.000000 0.000000 NONE 0 0 0 0 1 0 0 0 0 0 0 0 0
