#	Name:			PISM00235
#	Creating user name:	14062
#	Creation time:		Sat Apr 06 01:54:34 2019

#	Modifying user name:	14062
#	Modification time:	Sat Apr 06 01:56:17 2019

@<TRIPOS>MOLECULE
PISM00235
   23    23     1     1     0
SMALL
GAST_HUCK


@<TRIPOS>ATOM
      1 C1          9.9989    0.3617    2.1447 C.ar      1 <1>         0.1267 
      2 C2         11.1213    0.2607    1.3094 C.ar      1 <1>         0.0785 
      3 C3         10.9579    0.0633   -0.0644 C.ar      1 <1>        -0.0349 
      4 C4          9.6771   -0.0140   -0.6147 C.ar      1 <1>         0.0381 
      5 C5          8.5581    0.1109    0.2116 C.ar      1 <1>        -0.0353 
      6 C6          8.7145    0.3017    1.5892 C.ar      1 <1>         0.0447 
      7 C7          7.4931    0.4413    2.4730 C.2       1 <1>         0.0132 
      8 N8          6.3332    0.3705    1.9419 N.2       1 <1>        -0.3409 
      9 C9          5.2572    0.5220    2.9060 C.3       1 <1>         0.0273 
     10 C10         3.9171    0.4144    2.1430 C.3       1 <1>         0.0544 
     11 O11         2.8308    0.5638    3.0767 O.3       1 <1>        -0.3941 
     12 O12        10.1380    0.5272    3.5273 O.3       1 <1>        -0.3227 
     13 Cl13       12.7474    0.3832    1.9559 Cl        1 <1>        -0.0766 
     14 Cl14        9.4754   -0.2658   -2.3364 Cl        1 <1>        -0.0785 
     15 H1         11.8274   -0.0290   -0.7065 H         1 <1>         0.0662 
     16 H2          7.5668    0.0583   -0.2259 H         1 <1>         0.0671 
     17 H3          7.6614    0.5992    3.5414 H         1 <1>         0.1077 
     18 H4          5.2965    1.5067    3.4026 H         1 <1>         0.0413 
     19 H5          5.2860   -0.2718    3.6720 H         1 <1>         0.0413 
     20 H6          3.8702   -0.5682    1.6431 H         1 <1>         0.0566 
     21 H7          3.8820    1.2045    1.3735 H         1 <1>         0.0566 
     22 H8          1.9750    0.5075    2.6621 H         1 <1>         0.2094 
     23 H9         10.9232    0.1324    3.8898 H         1 <1>         0.2540 
@<TRIPOS>BOND
     1    2    1 ar   
     2    2    3 ar   
     3    3    4 ar   
     4    4    5 ar   
     5    5    6 ar   
     6    1    6 ar   
     7    6    7 1    
     8    7    8 2    
     9    8    9 1    
    10    9   10 1    
    11   10   11 1    
    12    1   12 1    
    13    2   13 1    
    14    4   14 1    
    15    3   15 1    
    16    5   16 1    
    17    7   17 1    
    18    9   18 1    
    19    9   19 1    
    20   10   20 1    
    21   10   21 1    
    22   11   22 1    
    23   12   23 1    
@<TRIPOS>SUBSTRUCTURE
     1 ****        2 TEMP              0 ****  ****    0 ROOT 
@<TRIPOS>NORMAL
@<TRIPOS>FF_PBC
FORCE_FIELD_SETUP_FEATURE Force Field Setup information
v1.0  0 0.000000 0.000000 0.000000 0.000000 0.000000 0.000000 NONE 0 0 0 0 1 0 0 0 0 0 0 0 0
