#	Name:			PISM00269
#	Creating user name:	14062
#	Creation time:		Sat Apr 06 00:59:17 2019

#	Modifying user name:	14062
#	Modification time:	Sat Apr 06 01:00:16 2019

@<TRIPOS>MOLECULE
PISM00269
   21    22     1     1     0
SMALL
GAST_HUCK


@<TRIPOS>ATOM
      1 C1          1.8932   -6.0427   -1.3848 C.ar      1 <1>        -0.0626 
      2 C2          1.1580   -5.0280   -0.7641 C.ar      1 <1>        -0.0527 
      3 C3          1.3900   -3.6823   -1.0794 C.ar      1 <1>         0.0145 
      4 C4          2.3720   -3.3754   -2.0300 C.ar      1 <1>        -0.0527 
      5 C5          3.1076   -4.3866   -2.6548 C.ar      1 <1>        -0.0626 
      6 C6          2.8689   -5.7246   -2.3325 C.ar      1 <1>        -0.0631 
      7 C7          0.6223   -2.5426   -0.4364 C.2       1 <1>         0.1287 
      8 C8         -0.3021   -2.6898    0.5184 C.2       1 <1>        -0.0434 
      9 C9         -0.7294   -1.3188    0.7875 C.2       1 <1>        -0.0388 
     10 C10         0.0139   -0.5954   -0.0514 C.2       1 <1>         0.1672 
     11 O11         0.8591   -1.2839   -0.8251 O.3       1 <1>        -0.2448 
     12 C12        -0.0641    0.8751   -0.1478 C.2       1 <1>         0.1514 
     13 O13         0.6366    1.4975   -0.9300 O.2       1 <1>        -0.3681 
     14 H1          1.7062   -7.0819   -1.1308 H         1 <1>         0.0614 
     15 H2          0.4072   -5.3116   -0.0375 H         1 <1>         0.0613 
     16 H3          2.5738   -2.3418   -2.2931 H         1 <1>         0.0613 
     17 H4          3.8649   -4.1329   -3.3906 H         1 <1>         0.0614 
     18 H5          3.4383   -6.5126   -2.8160 H         1 <1>         0.0606 
     19 H6         -0.6894   -3.5749    1.0182 H         1 <1>         0.0413 
     20 H7         -1.4770   -0.9805    1.5041 H         1 <1>         0.0465 
     21 H8         -0.7556    1.4288    0.4853 H         1 <1>         0.1335 
@<TRIPOS>BOND
     1    2    1 ar   
     2    2    3 ar   
     3    3    4 ar   
     4    4    5 ar   
     5    6    5 ar   
     6    1    6 ar   
     7    3    7 1    
     8    7    8 2    
     9    8    9 1    
    10   10    9 2    
    11   11   10 1    
    12    7   11 1    
    13   10   12 1    
    14   12   13 2    
    15    1   14 1    
    16    2   15 1    
    17    4   16 1    
    18    5   17 1    
    19    6   18 1    
    20    8   19 1    
    21    9   20 1    
    22   12   21 1    
@<TRIPOS>SUBSTRUCTURE
     1 ****        2 TEMP              0 ****  ****    0 ROOT 
@<TRIPOS>NORMAL
@<TRIPOS>FF_PBC
FORCE_FIELD_SETUP_FEATURE Force Field Setup information
v1.0  0 0.000000 0.000000 0.000000 0.000000 0.000000 0.000000 NONE 0 0 0 0 1 0 0 0 0 0 0 0 0
