#	Name:			PISM00533
#	Creating user name:	malab
#	Creation time:		Thu Apr 04 21:44:45 2019

#	Modifying user name:	malab
#	Modification time:	Thu Apr 04 21:45:36 2019

@<TRIPOS>MOLECULE
PISM00533
   16    17     1     1     0
SMALL
GAST_HUCK


@<TRIPOS>ATOM
      1 C1         20.7780    8.4128   -5.6332 C.2       1 <1>         0.0464 
      2 C2         20.7053    7.8733   -7.0392 C.ar      1 <1>         0.0409 
      3 C3         21.7893    8.3298   -7.7779 C.ar      1 <1>         0.1239 
      4 S4         22.8334    9.3635   -6.7997 S.o2      1 <1>         0.0764 
      5 N5         21.7922    9.1535   -5.4309 N.2       1 <1>        -0.1859 
      6 C6         19.7426    7.0391   -7.6096 C.ar      1 <1>        -0.0403 
      7 C7         19.8990    6.6705   -8.9512 C.ar      1 <1>        -0.0532 
      8 C8         20.9934    7.1299   -9.6971 C.ar      1 <1>        -0.0530 
      9 C9         21.9524    7.9676   -9.1152 C.ar      1 <1>        -0.0271 
     10 O10        22.7564   10.7297   -7.2765 O.2       1 <1>        -0.1532 
     11 O11        24.1003    8.6999   -6.5660 O.2       1 <1>        -0.1532 
     12 H1         20.0395    8.1939   -4.8635 H         1 <1>         0.1123 
     13 H2         18.8979    6.6882   -7.0256 H         1 <1>         0.0692 
     14 H3         19.1640    6.0217   -9.4183 H         1 <1>         0.0637 
     15 H4         21.0995    6.8338  -10.7366 H         1 <1>         0.0676 
     16 H5         22.8037    8.3307   -9.6811 H         1 <1>         0.0656 
@<TRIPOS>BOND
     1    2    1 1    
     2    2    3 ar   
     3    3    4 1    
     4    4    5 1    
     5    1    5 2    
     6    2    6 ar   
     7    6    7 ar   
     8    7    8 ar   
     9    8    9 ar   
    10    3    9 ar   
    11    4   10 2    
    12    4   11 2    
    13    1   12 1    
    14    6   13 1    
    15    7   14 1    
    16    8   15 1    
    17    9   16 1    
@<TRIPOS>SUBSTRUCTURE
     1 ****        2 TEMP              0 ****  ****    0 ROOT 
@<TRIPOS>NORMAL
@<TRIPOS>FF_PBC
FORCE_FIELD_SETUP_FEATURE Force Field Setup information
v1.0  0 0.000000 0.000000 0.000000 0.000000 0.000000 0.000000 NONE 0 0 0 0 1 0 0 0 0 0 0 0 0
 0 0 0 0 0
