#	Name:			PISM00396
#	Creating user name:	malab
#	Creation time:		Tue Apr 02 19:22:01 2019

#	Modifying user name:	malab
#	Modification time:	Tue Apr 02 20:29:02 2019

@<TRIPOS>MOLECULE
PISM00396
   37    38     1     1     0
SMALL
GAST_HUCK


@<TRIPOS>ATOM
      1 N1          9.1687    1.4403    0.0352 N.2       1 <1>        -0.1721 
      2 C2         10.3674    1.0036    0.1164 C.2       1 <1>         0.0658 
      3 N3         10.6301    0.7556   -1.2690 N.2       1 <1>        -0.2821 
      4 C4          9.6319    1.0517   -1.9687 C.2       1 <1>         0.1498 
      5 N5          8.6505    1.4929   -1.2277 N.pl3     1 <1>        -0.1213 
      6 C6          7.4553    1.8956   -1.5962 C.2       1 <1>         0.1430 
      7 C7          6.5493    2.3418   -0.4540 C.3       1 <1>         0.1795 
      8 F8          7.2848    3.0088    0.4782 F         1 <1>        -0.2210 
      9 H1         11.0050    0.8622    0.9870 H         1 <1>         0.0882 
     10 H2          9.6991    0.9132   -3.0450 H         1 <1>         0.1391 
     11 C11         7.0552    1.9079   -2.8805 C.2       1 <1>        -0.0329 
     12 C12         5.3315    3.7386   -3.2053 C.ar      1 <1>        -0.0674 
     13 C13         4.0651    4.1601   -3.6203 C.ar      1 <1>        -0.0570 
     14 C14         3.1965    3.2597   -4.2424 C.ar      1 <1>         0.0313 
     15 C15         3.5983    1.9386   -4.4588 C.ar      1 <1>        -0.0570 
     16 C16         4.8579    1.5148   -4.0288 C.ar      1 <1>        -0.0674 
     17 Cl17        1.6079    3.7894   -4.7559 Cl        1 <1>        -0.0782 
     18 C18         5.7143    2.4045   -3.3723 C.ar      1 <1>        -0.0506 
     19 C19         5.7213    1.1975    0.2230 C.3       1 <1>         0.0100 
     20 C20         6.5993   -0.0628    0.4826 C.3       1 <1>        -0.0549 
     21 C21         5.1571    1.7032    1.5867 C.3       1 <1>        -0.0549 
     22 C22         4.5187    0.7863   -0.6809 C.3       1 <1>        -0.0549 
     23 H3          5.8360    3.1105   -0.7729 H         1 <1>         0.0912 
     24 H4          7.6680    1.5522   -3.7034 H         1 <1>         0.0312 
     25 H5          6.0179    4.4542   -2.7638 H         1 <1>         0.0542 
     26 H6          3.7555    5.1881   -3.4655 H         1 <1>         0.0600 
     27 H7          2.9329    1.2454   -4.9616 H         1 <1>         0.0600 
     28 H8          5.1708    0.4904   -4.2046 H         1 <1>         0.0542 
     29 H9          5.9970   -0.8713    0.9244 H         1 <1>         0.0238 
     30 H10         7.4134    0.1687    1.1848 H         1 <1>         0.0238 
     31 H11         7.0364   -0.4467   -0.4520 H         1 <1>         0.0238 
     32 H12         4.5460    2.6083    1.4431 H         1 <1>         0.0238 
     33 H13         5.9728    1.9450    2.2870 H         1 <1>         0.0238 
     34 H14         4.5272    0.9318    2.0579 H         1 <1>         0.0238 
     35 H15         4.8759    0.3497   -1.6228 H         1 <1>         0.0238 
     36 H16         3.8754    1.6501   -0.9131 H         1 <1>         0.0238 
     37 H17         3.8972    0.0295   -0.1772 H         1 <1>         0.0238 
@<TRIPOS>BOND
     1    2    1 2    
     2    2    3 1    
     3    3    4 2    
     4    4    5 1    
     5    1    5 1    
     6    5    6 1    
     7    6    7 1    
     8    7    8 1    
     9    2    9 1    
    10    4   10 1    
    11    7   23 1    
    12    6   11 2    
    13   18   12 ar   
    14   12   13 ar   
    15   13   14 ar   
    16   14   15 ar   
    17   15   16 ar   
    18   18   16 ar   
    19   11   18 1    
    20   14   17 1    
    21    7   19 1    
    22   19   20 1    
    23   19   21 1    
    24   19   22 1    
    25   11   24 1    
    26   12   25 1    
    27   13   26 1    
    28   15   27 1    
    29   16   28 1    
    30   20   29 1    
    31   20   30 1    
    32   20   31 1    
    33   21   32 1    
    34   21   33 1    
    35   21   34 1    
    36   22   35 1    
    37   22   36 1    
    38   22   37 1    
@<TRIPOS>SUBSTRUCTURE
     1 ****        2 TEMP              0 ****  ****    0 ROOT 
@<TRIPOS>NORMAL
@<TRIPOS>FF_PBC
FORCE_FIELD_SETUP_FEATURE Force Field Setup information
v1.0  0 0.000000 0.000000 0.000000 0.000000 0.000000 0.000000 NONE 0 0 0 0 1 0 0 0 0 0 0 0 0
