#	Name:			PISM00213
#	Creating user name:	14062
#	Creation time:		Mon Apr 01 21:32:42 2019

#	Modifying user name:	14062
#	Modification time:	Mon Apr 01 21:33:15 2019

@<TRIPOS>MOLECULE
PISM00213
   37    39     1     2     0
SMALL
GAST_HUCK


@<TRIPOS>ATOM
      1 N1         -1.6776    2.1849    5.1995 N.pl3     1 <1>        -0.2884 
      2 C2         -3.0240    2.2260    5.2063 C.ar      1 <1>         0.0606 
      3 C3         -3.5014    1.6704    4.0352 C.ar      1 <1>        -0.0189 
      4 C4         -4.8681    1.5869    3.7649 C.ar      1 <1>        -0.0745 
      5 C5         -5.7428    2.1004    4.7317 C.ar      1 <1>        -0.0792 
      6 C6         -5.2550    2.6617    5.9220 C.ar      1 <1>        -0.0767 
      7 C7         -2.2350    1.2803    3.3132 C.2       1 <1>        -0.0209 
      8 C8         -1.2104    1.6441    4.1043 C.2       1 <1>         0.0197 
      9 C9         -3.8804    2.7253    6.1883 C.ar      1 <1>        -0.0442 
     10 C10        -2.1933    0.6146    1.9557 C.3       1 <1>         0.0913 
     11 C11        -2.1740   -0.8882    2.0653 C.2       1 <1>         0.2417 
     12 O12        -2.3077   -1.5898    1.0741 O.2       1 <1>        -0.3685 
     13 O13        -2.0009   -1.4063    3.2811 O.3       1 <1>        -0.2916 
     14 C14        -1.0488    1.1186    1.0340 C.3       1 <1>         0.0476 
     15 C15         0.2591    0.3962    1.2346 C.2       1 <1>         0.1366 
     16 O16         0.4904   -0.1630    2.2949 O.2       1 <1>        -0.3781 
     17 C17         1.2979    0.3169    0.1366 C.ar      1 <1>         0.0329 
     18 C18         2.2139   -0.7414    0.1582 C.ar      1 <1>        -0.0430 
     19 C19         3.1457   -0.9011   -0.8710 C.ar      1 <1>        -0.0559 
     20 C20         3.1878    0.0235   -1.9171 C.ar      1 <1>        -0.0572 
     21 C21         2.2931    1.1027   -1.9316 C.ar      1 <1>        -0.0559 
     22 C22         1.3623    1.2571   -0.9005 C.ar      1 <1>        -0.0430 
     23 H1         -1.0889    2.5365    5.9693 H         1 <1>         0.2219 
     24 H2         -5.2409    1.1448    2.8468 H         1 <1>         0.0540 
     25 H3         -6.8150    2.0651    4.5574 H         1 <1>         0.0510 
     26 H4         -5.9554    3.0550    6.6530 H         1 <1>         0.0530 
     27 H5         -0.1517    1.5172    3.8860 H         1 <1>         0.0804 
     28 H6         -3.4945    3.1389    7.1148 H         1 <1>         0.0541 
     29 H7         -3.1414    0.8823    1.4653 H         1 <1>         0.0659 
     30 H8         -1.9566   -2.3573    3.2404 H         1 <1>         0.2540 
     31 H9         -0.9031    2.2033    1.1703 H         1 <1>         0.0528 
     32 H10        -1.3478    0.9251   -0.0114 H         1 <1>         0.0528 
     33 H11         2.1974   -1.4573    0.9748 H         1 <1>         0.0672 
     34 H12         3.8296   -1.7493   -0.8620 H         1 <1>         0.0630 
     35 H13         3.9103   -0.0978   -2.7186 H         1 <1>         0.0655 
     36 H14         2.3233    1.8232   -2.7477 H         1 <1>         0.0630 
     37 H15         0.6924    2.1140   -0.9158 H         1 <1>         0.0672 
@<TRIPOS>BOND
     1    8    1 1    
     2    1    2 1    
     3    2    3 ar   
     4    3    7 1    
     5    3    4 ar   
     6    4    5 ar   
     7    5    6 ar   
     8    7    8 2    
     9    6    9 ar   
    10    2    9 ar   
    11    7   10 1    
    12   10   11 1    
    13   11   12 2    
    14   11   13 1    
    15   10   14 1    
    16   14   15 1    
    17   15   16 2    
    18   15   17 1    
    19   17   18 ar   
    20   18   19 ar   
    21   19   20 ar   
    22   20   21 ar   
    23   21   22 ar   
    24   17   22 ar   
    25    1   23 1    
    26    4   24 1    
    27    5   25 1    
    28    6   26 1    
    29    8   27 1    
    30    9   28 1    
    31   10   29 1    
    32   13   30 1    
    33   14   31 1    
    34   14   32 1    
    35   18   33 1    
    36   19   34 1    
    37   20   35 1    
    38   21   36 1    
    39   22   37 1    
@<TRIPOS>SUBSTRUCTURE
     1 ****        7 TEMP              0 ****  ****    0 ROOT 
@<TRIPOS>NORMAL
@<TRIPOS>FF_PBC
FORCE_FIELD_SETUP_FEATURE Force Field Setup information
v1.0  0 0.000000 0.000000 0.000000 0.000000 0.000000 0.000000 NONE 0 0 0 0 1 0 0 0 0 0 0 0 0
@<TRIPOS>RENDERING_ATTRS
ANTIALIASED_LINES 
*
