#	Name:			PISM00563
#	Creating user name:	malab
#	Creation time:		Thu Apr 04 21:35:47 2019

#	Modifying user name:	malab
#	Modification time:	Thu Apr 04 21:39:21 2019

@<TRIPOS>MOLECULE
PISM00563
   53    56     1     1     0
SMALL
GAST_HUCK


@<TRIPOS>ATOM
      1 C1         22.4062   12.1642  -10.6582 C.3       1 <1>        -0.0379 
      2 C2         22.9603   11.3742   -9.4920 C.2       1 <1>        -0.0536 
      3 C3         22.7060    9.8863   -9.5265 C.3       1 <1>         0.0809 
      4 C4         23.1488    9.1479   -8.2326 C.3       1 <1>        -0.0060 
      5 C5         24.4576    9.6940   -7.5693 C.3       1 <1>         0.0428 
      6 C6         24.2124   11.2130   -7.3122 C.3       1 <1>         0.0754 
      7 C7         23.6334   11.9577   -8.4901 C.2       1 <1>        -0.0777 
      8 O8         23.2583    9.2987  -10.7149 O.3       1 <1>        -0.3808 
      9 O9         23.2588   11.4584   -6.2586 O.3       1 <1>        -0.3623 
     10 C10        23.5126   10.7477   -5.0307 C.3       1 <1>         0.1208 
     11 C11        23.4903    9.2468   -5.3412 C.3       1 <1>         0.1302 
     12 C12        24.7502    8.9806   -6.1827 C.3       1 <1>         0.0465 
     13 C13        23.2926    8.3698   -4.0254 C.3       1 <1>         0.0808 
     14 O14        22.4214    8.3719   -5.1325 O.3       1 <1>        -0.3648 
     15 C15        24.9665   10.8694   -4.5093 C.3       1 <1>         0.1153 
     16 C16        25.7613    9.7360   -5.2450 C.3       1 <1>         0.1248 
     17 C17        25.6462    9.5158   -8.5712 C.3       1 <1>         0.0867 
     18 O18        25.5495   10.4357   -9.6792 O.3       1 <1>        -0.2763 
     19 C19        26.6050   10.4112  -10.5076 C.2       1 <1>         0.2306 
     20 C20        26.5442   11.3899  -11.6438 C.3       1 <1>         0.0372 
     21 O21        27.5574    9.6646  -10.3553 O.2       1 <1>        -0.3707 
     22 O22        25.5336   12.1813   -4.6817 O.3       1 <1>        -0.3862 
     23 O23        26.2868    8.8122   -4.2608 O.3       1 <1>        -0.2704 
     24 C24        27.1994    9.3376   -3.4298 C.2       1 <1>         0.2310 
     25 O25        27.5846   10.4941   -3.5205 O.2       1 <1>        -0.3707 
     26 C26        27.7379    8.4084   -2.3756 C.3       1 <1>         0.0372 
     27 H27        25.1726   11.6989   -7.0797 H         1 <1>         0.0677 
     28 H28        22.7534   11.0613   -4.2967 H         1 <1>         0.0655 
     29 C29        25.1412    7.4790   -6.3545 C.3       1 <1>        -0.0532 
     30 H1         22.8479   11.7933  -11.5954 H         1 <1>         0.0376 
     31 H2         22.6214   13.2399  -10.5785 H         1 <1>         0.0376 
     32 H3         21.3134   12.0348  -10.7086 H         1 <1>         0.0376 
     33 H4         21.6181    9.7360   -9.6468 H         1 <1>         0.0741 
     34 H5         23.2197    8.0820   -8.4893 H         1 <1>         0.0320 
     35 H6         22.3135    9.2631   -7.5254 H         1 <1>         0.0320 
     36 H7         23.7762   13.0384   -8.4965 H         1 <1>         0.0268 
     37 H8         24.1989    9.4030  -10.7663 H         1 <1>         0.2129 
     38 H9         22.7155    8.7709   -3.1792 H         1 <1>         0.0590 
     39 H10        23.5698    7.3117   -3.9235 H         1 <1>         0.0590 
     40 H11        24.9190   10.6539   -3.4261 H         1 <1>         0.0650 
     41 H12        26.6077   10.1404   -5.8178 H         1 <1>         0.0683 
     42 H13        25.6598    8.4895   -8.9735 H         1 <1>         0.0621 
     43 H14        26.6005    9.7003   -8.0591 H         1 <1>         0.0621 
     44 H15        26.7290   12.4043  -11.2593 H         1 <1>         0.0483 
     45 H16        25.5490   11.3509  -12.1114 H         1 <1>         0.0483 
     46 H17        27.3074   11.1441  -12.3978 H         1 <1>         0.0483 
     47 H18        26.4205   12.2301   -4.3296 H         1 <1>         0.2100 
     48 H19        26.9653    7.6858   -2.0713 H         1 <1>         0.0483 
     49 H20        28.0523    8.9813   -1.4892 H         1 <1>         0.0483 
     50 H21        28.6056    7.8603   -2.7722 H         1 <1>         0.0483 
     51 H22        26.0941    7.4089   -6.8965 H         1 <1>         0.0237 
     52 H23        24.3761    6.9122   -6.8994 H         1 <1>         0.0237 
     53 H24        25.2945    6.9637   -5.3989 H         1 <1>         0.0237 
@<TRIPOS>BOND
     1    2    1 1    
     2    2    3 1    
     3    3    4 1    
     4    4    5 1    
     5    5    6 1    
     6    6    7 1    
     7    2    7 2    
     8    3    8 1    
     9    6    9 1    
    10    9   10 1    
    11   10   11 1    
    12   11   12 1    
    13    5   12 1    
    14   11   13 1    
    15   13   14 1    
    16   11   14 1    
    17   10   15 1    
    18   15   16 1    
    19   12   16 1    
    20    5   17 1    
    21   17   18 1    
    22   18   19 1    
    23   19   20 1    
    24   19   21 2    
    25   15   22 1    
    26   16   23 1    
    27   23   24 1    
    28   24   25 2    
    29   24   26 1    
    30    6   27 1    
    31   10   28 1    
    32   12   29 1    
    33    1   30 1    
    34    1   31 1    
    35    1   32 1    
    36    3   33 1    
    37    4   34 1    
    38    4   35 1    
    39    7   36 1    
    40    8   37 1    
    41   13   38 1    
    42   13   39 1    
    43   15   40 1    
    44   16   41 1    
    45   17   42 1    
    46   17   43 1    
    47   20   44 1    
    48   20   45 1    
    49   20   46 1    
    50   22   47 1    
    51   26   48 1    
    52   26   49 1    
    53   26   50 1    
    54   29   51 1    
    55   29   52 1    
    56   29   53 1    
@<TRIPOS>SUBSTRUCTURE
     1 ****        2 TEMP              0 ****  ****    0 ROOT 
@<TRIPOS>NORMAL
@<TRIPOS>FF_PBC
FORCE_FIELD_SETUP_FEATURE Force Field Setup information
v1.0  0 0.000000 0.000000 0.000000 0.000000 0.000000 0.000000 NONE 0 0 0 0 1 0 0 0 0 0 0 0 0
