#	Name:			PISM00889.1
#	Creating user name:	baoopengkun
#	Creation time:		Fri Dec 14 09:30:18 2018

#	Modifying user name:	baoopengkun
#	Modification time:	Fri Dec 14 09:48:52 2018

@<TRIPOS>MOLECULE
PISM00889.1
   31    33     1     1     0
SMALL
GAST_HUCK


@<TRIPOS>ATOM
      1 C1          7.1907    5.1469    0.6537 C.ar      1 <1>        -0.0471 
      2 C2          7.8231    4.7316    1.8312 C.ar      1 <1>         0.0330 
      3 C3          8.8849    5.4939    2.3311 C.ar      1 <1>        -0.0471 
      4 C4          9.3029    6.6501    1.6658 C.ar      1 <1>        -0.0701 
      5 C5          8.6697    7.0669    0.4901 C.ar      1 <1>        -0.0314 
      6 C6          7.6088    6.3036   -0.0116 C.ar      1 <1>        -0.0701 
      7 C7          9.1604    8.3286   -0.1901 C.2       1 <1>         0.0614 
      8 N8         10.2570    9.1169    0.3200 N.2       1 <1>        -0.2198 
      9 N9         10.3532   10.1160   -0.5728 N.2       1 <1>        -0.0879 
     10 N10         9.4114    9.9750   -1.5283 N.pl3     1 <1>        -0.1262 
     11 C11         8.7024    8.9033   -1.3078 C.2       1 <1>         0.0885 
     12 C12         9.2569   10.8786   -2.6544 C.3       1 <1>         0.2436 
     13 C13         8.3716   12.0217   -2.2232 C.2       1 <1>         0.0016 
     14 C14         7.2475   12.0351   -2.9371 C.2       1 <1>         0.0295 
     15 C15         7.4086   10.9089   -3.8498 C.2       1 <1>         0.2498 
     16 O16         8.5510   10.2420   -3.7397 O.3       1 <1>        -0.2284 
     17 O17         6.5566   10.5962   -4.6630 O.2       1 <1>        -0.3691 
     18 C18         6.0886   12.9899   -2.8453 C.3       1 <1>        -0.0323 
     19 N19         7.4142    3.6108    2.4764 N.pl3     1 <1>        -0.3381 
     20 H20         6.6330    3.0481    2.1079 H         1 <1>         0.1716 
     21 H21         7.8787    3.3062    3.3448 H         1 <1>         0.1716 
     22 H1          6.3663    4.5705    0.2462 H         1 <1>         0.0511 
     23 H2          9.3936    5.1930    3.2412 H         1 <1>         0.0511 
     24 H3         10.1285    7.2270    2.0708 H         1 <1>         0.0556 
     25 H4          7.0950    6.5939   -0.9199 H         1 <1>         0.0556 
     26 H5          7.8844    8.5546   -1.9351 H         1 <1>         0.1041 
     27 H6         10.2422   11.2345   -2.9955 H         1 <1>         0.1242 
     28 H7          8.6220   12.7280   -1.4323 H         1 <1>         0.0709 
     29 H8          5.6513   13.1418   -3.8436 H         1 <1>         0.0347 
     30 H9          6.4170   13.9626   -2.4490 H         1 <1>         0.0347 
     31 H10         5.3214   12.5693   -2.1786 H         1 <1>         0.0347 
@<TRIPOS>BOND
     1    2    1 ar   
     2    2    3 ar   
     3    3    4 ar   
     4    4    5 ar   
     5    5    6 ar   
     6    1    6 ar   
     7    5    7 1    
     8    7    8 1    
     9    8    9 2    
    10    9   10 1    
    11   10   11 1    
    12    7   11 2    
    13   10   12 1    
    14   12   13 1    
    15   13   14 2    
    16   14   15 1    
    17   15   16 1    
    18   12   16 1    
    19   15   17 2    
    20   14   18 1    
    21    2   19 1    
    22   19   20 1    
    23   19   21 1    
    24    1   22 1    
    25    3   23 1    
    26    4   24 1    
    27    6   25 1    
    28   11   26 1    
    29   12   27 1    
    30   13   28 1    
    31   18   29 1    
    32   18   30 1    
    33   18   31 1    
@<TRIPOS>SUBSTRUCTURE
     1 ****        2 TEMP              0 ****  ****    0 ROOT 
@<TRIPOS>NORMAL
@<TRIPOS>FF_PBC
FORCE_FIELD_SETUP_FEATURE Force Field Setup information
v1.0  0 0.000000 0.000000 0.000000 0.000000 0.000000 0.000000 NONE 0 0 0 0 1 0 0 0 0 0 0 0 0
