#	Name:			PISM00372
#	Creating user name:	malab
#	Creation time:		Tue Apr 02 20:32:38 2019

#	Modifying user name:	malab
#	Modification time:	Tue Apr 02 20:43:31 2019

@<TRIPOS>MOLECULE
PISM00372
   83    85     1     1     0
SMALL
GAST_HUCK


@<TRIPOS>ATOM
      1 N1          7.6708   -0.3630   -7.9417 N.2       1 <1>        -0.1730 
      2 C2          8.3189   -0.5530   -9.0285 C.2       1 <1>         0.0653 
      3 N3          7.4177    0.0552   -9.9617 N.2       1 <1>        -0.2827 
      4 C4          6.4067    0.5061   -9.3718 C.2       1 <1>         0.1489 
      5 N5          6.4760    0.2840   -8.0876 N.pl3     1 <1>        -0.1236 
      6 C6          5.6205    0.6071   -7.1458 C.2       1 <1>         0.1347 
      7 C7          6.0321    0.1604   -5.7467 C.3       1 <1>         0.1322 
      8 O8          7.4263    0.4224   -5.4972 O.3       1 <1>        -0.3716 
      9 N9         -0.2989    2.0357   -2.9953 N.2       1 <1>        -0.0916 
     10 N10        -1.0320    2.6494   -2.0520 N.2       1 <1>        -0.2262 
     11 C11         4.4754    1.2723   -7.3870 C.2       1 <1>        -0.0370 
     12 C12         3.8503    2.6434   -5.3487 C.ar      1 <1>        -0.0693 
     13 C13         2.9515    2.9880   -4.3348 C.ar      1 <1>        -0.0312 
     14 C14         1.6519    2.4648   -4.3311 C.ar      1 <1>         0.1107 
     15 C15         1.2878    1.5536   -5.3284 C.ar      1 <1>        -0.0312 
     16 C16         2.1958    1.1835   -6.3244 C.ar      1 <1>        -0.0693 
     17 N17         0.7378    2.8078   -3.3893 N.pl3     1 <1>        -0.1418 
     18 C18         3.4911    1.7079   -6.3235 C.ar      1 <1>        -0.0552 
     19 C19         5.6251   -1.3137   -5.3972 C.3       1 <1>         0.0043 
     20 C20         6.2258   -2.3588   -6.3845 C.3       1 <1>        -0.0552 
     21 C21         6.1218   -1.6511   -3.9585 C.3       1 <1>        -0.0552 
     22 C22         4.0736   -1.4538   -5.4294 C.3       1 <1>        -0.0552 
     23 C23        -0.3540    3.9115   -1.8987 C.2       1 <1>         0.0385 
     24 C24         0.6906    3.9373   -2.7335 C.2       1 <1>         0.0826 
     25 C25        -0.8309    4.9617   -0.9278 C.3       1 <1>        -0.0183 
     26 C26        -0.1129    9.5282    1.3030 C.3       1 <1>        -0.0531 
     27 C27         0.7834   10.7953    1.3679 C.3       1 <1>        -0.0531 
     28 C28         0.2738   11.7989    2.4387 C.3       1 <1>        -0.0531 
     29 H1          9.2802   -1.0375   -9.1944 H         1 <1>         0.0879 
     30 H2          5.6358    0.9992   -9.9599 H         1 <1>         0.1387 
     31 H3          5.5465    0.7882   -4.9900 H         1 <1>         0.0846 
     32 H4          7.9979   -0.0324   -6.1082 H         1 <1>         0.2141 
     33 H5          4.1462    1.5612   -8.3808 H         1 <1>         0.0306 
     34 H6          4.8317    3.1076   -5.3792 H         1 <1>         0.0534 
     35 H7          3.2857    3.6583   -3.5517 H         1 <1>         0.0577 
     36 H8          0.2886    1.1302   -5.3337 H         1 <1>         0.0577 
     37 H9          1.8925    0.4864   -7.0993 H         1 <1>         0.0534 
     38 H10         5.9027   -3.3744   -6.1086 H         1 <1>         0.0238 
     39 H11         7.3250   -2.3471   -6.3624 H         1 <1>         0.0238 
     40 H12         5.8869   -2.1718   -7.4141 H         1 <1>         0.0238 
     41 H13         5.8277   -2.6725   -3.6715 H         1 <1>         0.0238 
     42 H14         5.6938   -0.9538   -3.2220 H         1 <1>         0.0238 
     43 H15         7.2188   -1.5844   -3.8995 H         1 <1>         0.0238 
     44 H16         3.6911   -1.2773   -6.4451 H         1 <1>         0.0238 
     45 H17         3.5980   -0.7373   -4.7424 H         1 <1>         0.0238 
     46 C46         0.0546    6.2354   -0.8690 C.3       1 <1>        -0.0461 
     47 H18         3.7661   -2.4665   -5.1263 H         1 <1>         0.0238 
     48 H19         1.3702    4.7807   -2.8334 H         1 <1>         0.0901 
     49 H20        -0.8648    4.4919    0.0676 H         1 <1>         0.0382 
     50 C50        -0.4821    7.2500    0.1780 C.3       1 <1>        -0.0517 
     51 H21        -1.8579    5.2370   -1.2141 H         1 <1>         0.0382 
     52 C52         0.4086    8.5213    0.2412 C.3       1 <1>        -0.0529 
     53 H22        -0.1252    9.0408    2.2918 H         1 <1>         0.0265 
     54 H23        -1.1447    9.8235    1.0508 H         1 <1>         0.0265 
     55 H24         0.7899   11.2869    0.3811 H         1 <1>         0.0265 
     56 H25         1.8166   10.4979    1.6120 H         1 <1>         0.0265 
     57 H26        -0.7595   12.0975    2.1964 H         1 <1>         0.0265 
     58 C58         1.1742   13.0633    2.4989 C.3       1 <1>        -0.0531 
     59 H28         0.2688   11.3078    3.4258 H         1 <1>         0.0265 
     60 H29         0.0710    6.7149   -1.8616 H         1 <1>         0.0282 
     61 H30         1.0840    5.9488   -0.5974 H         1 <1>         0.0282 
     62 H31        -0.5028    6.7716    1.1711 H         1 <1>         0.0267 
     63 H32        -1.5124    7.5393   -0.0871 H         1 <1>         0.0267 
     64 H33         0.4205    9.0076   -0.7482 H         1 <1>         0.0265 
     65 H34         1.4411    8.2296    0.4948 H         1 <1>         0.0265 
     66 C66         0.6728   14.0709    3.5697 C.3       1 <1>        -0.0531 
     67 H27         1.1778   13.5535    1.5114 H         1 <1>         0.0265 
     68 H35         2.2075   12.7626    2.7384 H         1 <1>         0.0265 
     69 H36        -0.3606   14.3721    3.3316 H         1 <1>         0.0265 
     70 C70         1.5773   15.3329    3.6215 C.3       1 <1>        -0.0531 
     71 H38         0.6711   13.5824    4.5580 H         1 <1>         0.0265 
     72 C72         1.0811   16.3467    4.6885 C.3       1 <1>        -0.0533 
     73 H37         1.5801   15.8193    2.6322 H         1 <1>         0.0265 
     74 H39         2.6102   15.0303    3.8604 H         1 <1>         0.0265 
     75 H40         0.0488   16.6519    4.4503 H         1 <1>         0.0265 
     76 C76         1.9901   17.6055    4.7357 C.3       1 <1>        -0.0559 
     77 H42         1.0782   15.8622    5.6788 H         1 <1>         0.0265 
     78 C78         1.4990   18.6183    5.8027 C.3       1 <1>        -0.0653 
     79 H41         1.9925   18.0963    3.7482 H         1 <1>         0.0263 
     80 H43         3.0242   17.3054    4.9743 H         1 <1>         0.0263 
     81 H44         0.4737   18.9495    5.5750 H         1 <1>         0.0230 
     82 H45         2.1570   19.5015    5.8183 H         1 <1>         0.0230 
     83 H46         1.5081   18.1572    6.8028 H         1 <1>         0.0230 
@<TRIPOS>BOND
     1    2    1 2    
     2    2    3 1    
     3    3    4 2    
     4    4    5 1    
     5    1    5 1    
     6    5    6 1    
     7    6    7 1    
     8    7    8 1    
     9   17    9 1    
    10    9   10 2    
    11   10   23 1    
    12    6   11 2    
    13   18   12 ar   
    14   12   13 ar   
    15   13   14 ar   
    16   15   14 ar   
    17   16   15 ar   
    18   18   16 ar   
    19   11   18 1    
    20   14   17 1    
    21    7   19 1    
    22   19   20 1    
    23   19   21 1    
    24   19   22 1    
    25   24   23 2    
    26   17   24 1    
    27   23   25 1    
    28   52   26 1    
    29   26   27 1    
    30   27   28 1    
    31    2   29 1    
    32    4   30 1    
    33    7   31 1    
    34    8   32 1    
    35   11   33 1    
    36   12   34 1    
    37   13   35 1    
    38   15   36 1    
    39   16   37 1    
    40   20   38 1    
    41   20   39 1    
    42   20   40 1    
    43   21   41 1    
    44   21   42 1    
    45   21   43 1    
    46   22   44 1    
    47   22   45 1    
    48   25   46 1    
    49   22   47 1    
    50   24   48 1    
    51   25   49 1    
    52   46   50 1    
    53   25   51 1    
    54   50   52 1    
    55   26   53 1    
    56   26   54 1    
    57   27   55 1    
    58   27   56 1    
    59   28   57 1    
    60   28   58 1    
    61   28   59 1    
    62   46   60 1    
    63   46   61 1    
    64   50   62 1    
    65   50   63 1    
    66   52   64 1    
    67   52   65 1    
    68   58   66 1    
    69   58   67 1    
    70   58   68 1    
    71   66   69 1    
    72   66   70 1    
    73   66   71 1    
    74   70   72 1    
    75   70   73 1    
    76   70   74 1    
    77   72   75 1    
    78   72   76 1    
    79   72   77 1    
    80   76   78 1    
    81   76   79 1    
    82   76   80 1    
    83   78   81 1    
    84   78   82 1    
    85   78   83 1    
@<TRIPOS>SUBSTRUCTURE
     1 ****        2 TEMP              0 ****  ****    0 ROOT 
@<TRIPOS>NORMAL
@<TRIPOS>FF_PBC
FORCE_FIELD_SETUP_FEATURE Force Field Setup information
v1.0  0 0.000000 0.000000 0.000000 0.000000 0.000000 0.000000 NONE 0 0 0 0 1 0 0 0 0 0 0 0 0
