#	Name:			PISM00761.1
#	Creating user name:	baoopengkun
#	Creation time:		Sun Dec 02 11:38:55 2018

#	Modifying user name:	baoopengkun
#	Modification time:	Sun Dec 02 11:46:50 2018

@<TRIPOS>MOLECULE
PISM00761.1
   36    37     1     2     0
SMALL
GAST_HUCK


@<TRIPOS>ATOM
      1 C1         -3.2289    4.7127   -2.5160 C.2       1 <1>         0.1268 
      2 C2         -3.8611    5.9635   -1.9468 C.3       1 <1>         0.0233 
      3 C3         -3.4495    6.1202   -0.4523 C.3       1 <1>        -0.0429 
      4 C4         -1.3930    4.6342   -0.6950 C.3       1 <1>        -0.0259 
      5 C5         -1.9161    4.2158   -2.0509 C.2       1 <1>         0.0221 
      6 O6         -3.8215    4.0795   -3.3755 O.2       1 <1>        -0.3545 
      7 C7         -1.2057    3.3864   -2.8291 C.2       1 <1>         0.0798 
      8 O8         -0.0215    2.9217   -2.4006 O.3       1 <1>        -0.2695 
      9 C9          0.6174    1.9972   -3.2999 C.3       1 <1>         0.2392 
     10 O10         1.8849    1.6427   -2.7121 O.3       1 <1>        -0.2304 
     11 C11         1.8044    0.3439   -2.4523 C.2       1 <1>         0.2495 
     12 C12         0.5574   -0.2989   -2.8493 C.2       1 <1>         0.0293 
     13 C13        -0.1541    0.6981   -3.3710 C.2       1 <1>        -0.0008 
     14 C14         0.1671   -1.7450   -2.7098 C.3       1 <1>        -0.0323 
     15 O15         2.7183   -0.2657   -1.9242 O.2       1 <1>        -0.3691 
     16 C16        -1.9166    6.0212   -0.2430 C.3       1 <1>        -0.0486 
     17 C17        -5.4144    5.8775   -2.0325 C.3       1 <1>        -0.0561 
     18 C18        -3.3775    7.1624   -2.8149 C.3       1 <1>        -0.0561 
     19 H2         -3.9232    5.3226    0.1436 H         1 <1>         0.0256 
     20 H3         -3.8102    7.0879   -0.0668 H         1 <1>         0.0256 
     21 H4         -0.2910    4.6573   -0.6700 H         1 <1>         0.0359 
     22 H5         -1.7325    3.8679    0.0204 H         1 <1>         0.0359 
     23 H6         -1.6195    3.1111   -3.8023 H         1 <1>         0.1097 
     24 H7          0.8001    2.4325   -4.2972 H         1 <1>         0.1212 
     25 H8         -1.1555    0.5832   -3.7840 H         1 <1>         0.0706 
     26 H9          1.0023   -2.3284   -2.2942 H         1 <1>         0.0347 
     27 H10        -0.0997   -2.1558   -3.6949 H         1 <1>         0.0347 
     28 H11        -0.6984   -1.8307   -2.0361 H         1 <1>         0.0347 
     29 H12        -1.3970    6.8189   -0.7945 H         1 <1>         0.0279 
     30 H13        -1.6825    6.1624    0.8262 H         1 <1>         0.0279 
     31 H14        -5.7515    5.7853   -3.0766 H         1 <1>         0.0219 
     32 H15        -5.8736    6.7803   -1.6013 H         1 <1>         0.0219 
     33 H16        -5.7812    4.9998   -1.4783 H         1 <1>         0.0219 
     34 H1         -3.7290    8.1146   -2.3892 H         1 <1>         0.0219 
     35 H17        -3.7772    7.0734   -3.8369 H         1 <1>         0.0219 
     36 H18        -2.2821    7.1972   -2.8990 H         1 <1>         0.0219 
@<TRIPOS>BOND
     1    2    1 1    
     2    2    3 1    
     3    5    4 1    
     4    4   16 1    
     5    1    5 1    
     6    1    6 2    
     7    5    7 2    
     8    7    8 1    
     9    8    9 1    
    10    9   10 1    
    11   10   11 1    
    12   12   11 1    
    13   13   12 2    
    14    9   13 1    
    15   12   14 1    
    16   11   15 2    
    17    3   16 1    
    18    2   17 1    
    19    2   18 1    
    20    3   19 1    
    21    3   20 1    
    22    4   21 1    
    23    4   22 1    
    24    7   23 1    
    25    9   24 1    
    26   13   25 1    
    27   14   26 1    
    28   14   27 1    
    29   14   28 1    
    30   16   29 1    
    31   16   30 1    
    32   17   31 1    
    33   17   32 1    
    34   17   33 1    
    35   18   34 1    
    36   18   35 1    
    37   18   36 1    
@<TRIPOS>SUBSTRUCTURE
     1 ****        2 TEMP              0 ****  ****    0 ROOT 
@<TRIPOS>NORMAL
@<TRIPOS>FF_PBC
FORCE_FIELD_SETUP_FEATURE Force Field Setup information
v1.0  0 0.000000 0.000000 0.000000 0.000000 0.000000 0.000000 NONE 0 0 0 0 1 0 0 0 0 0 0 0 0
@<TRIPOS>RENDERING_ATTRS
ANTIALIASED_LINES 
1,2,3,4,5,6,7,8,9,10,11,12,13,14,15,16,17,18,19,20,21,22,23,24,25,26,27,28,29,30,31,32,33
