#	Name:			PISM00142
#	Creating user name:	14062
#	Creation time:		Sat Oct 19 22:01:04 2019

#	Modifying user name:	14062
#	Modification time:	Sat Oct 19 22:06:03 2019

@<TRIPOS>MOLECULE
PISM00142
   41    44     1     1     0
SMALL
GAST_HUCK


@<TRIPOS>ATOM
      1 C1         -0.0023   -2.7864   -0.7761 C.2       1 <1>         0.1043 
      2 S2          1.7790   -3.0470   -0.6824 S.3       1 <1>         0.0451 
      3 C3          1.8701   -1.5804    0.3327 C.2       1 <1>         0.2158 
      4 N4          0.7736   -0.9979    0.5641 N.2       1 <1>        -0.2800 
      5 C5         -0.4013   -1.5871   -0.0185 C.2       1 <1>         0.1728 
      6 C6         -0.8508   -3.5676   -1.4560 C.2       1 <1>        -0.0253 
      7 C7         -0.4253   -4.8083   -2.2114 C.ar      1 <1>        -0.0223 
      8 C8          0.4588   -5.7401   -1.6559 C.ar      1 <1>        -0.0531 
      9 C9          0.8898   -6.8371   -2.4077 C.ar      1 <1>        -0.0527 
     10 C10         0.3976   -7.0376   -3.7002 C.ar      1 <1>         0.0120 
     11 C11        -0.5295   -6.1403   -4.2370 C.ar      1 <1>        -0.0527 
     12 C12        -0.9400   -5.0303   -3.4930 C.ar      1 <1>        -0.0531 
     13 Br13        0.9707   -8.4897   -4.6979 Br        1 <1>        -0.0504 
     14 O14        -1.5386   -1.1632    0.0957 O.2       1 <1>        -0.3882 
     15 N15         3.0793   -1.1869    0.7804 N.am      1 <1>        -0.1313 
     16 S16         3.2737    0.1262    1.7318 S.o2      1 <1>         0.1035 
     17 O17         3.5428   -0.3545    3.0720 O.2       1 <1>        -0.1418 
     18 O18         2.1879    1.0628    1.5213 O.2       1 <1>        -0.1418 
     19 C19         4.7667    0.8315    1.0490 C.ar      1 <1>         0.1247 
     20 C20         4.8917    1.1535   -0.3119 C.ar      1 <1>         0.0095 
     21 C21         6.1257    1.6097   -0.8010 C.ar      1 <1>        -0.0160 
     22 C22         7.1998    1.8067    0.0749 C.ar      1 <1>        -0.0539 
     23 C23         7.0511    1.5501    1.4389 C.ar      1 <1>        -0.0593 
     24 C24         5.8340    1.0666    1.9218 C.ar      1 <1>        -0.0337 
     25 C25         6.2908    1.8718   -2.1668 C.ar      1 <1>        -0.0540 
     26 C26         5.2251    1.7032   -3.0532 C.ar      1 <1>        -0.0612 
     27 C27         3.9838    1.2892   -2.5677 C.ar      1 <1>        -0.0611 
     28 C28         3.8164    1.0338   -1.2041 C.ar      1 <1>        -0.0521 
     29 H1         -1.9060   -3.2943   -1.4806 H         1 <1>         0.0628 
     30 H2          0.8070   -5.6270   -0.6350 H         1 <1>         0.0623 
     31 H3          1.6049   -7.5366   -1.9864 H         1 <1>         0.0640 
     32 H4         -0.9294   -6.3049   -5.2325 H         1 <1>         0.0640 
     33 H5         -1.6590   -4.3359   -3.9166 H         1 <1>         0.0623 
     34 H6          3.8823   -1.7367    0.5557 H         1 <1>         0.2445 
     35 H7          8.1575    2.1622   -0.2936 H         1 <1>         0.0624 
     36 H8          7.8785    1.7246    2.1207 H         1 <1>         0.0618 
     37 H9          5.7242    0.8730    2.9835 H         1 <1>         0.0638 
     38 H10         7.2479    2.2090   -2.5535 H         1 <1>         0.0624 
     39 H11         5.3600    1.8949   -4.1136 H         1 <1>         0.0618 
     40 H12         3.1483    1.1680   -3.2512 H         1 <1>         0.0618 
     41 H13         2.8288    0.7472   -0.8659 H         1 <1>         0.0624 
@<TRIPOS>BOND
     1    2    1 1    
     2    2    3 1    
     3    3    4 2    
     4    4    5 1    
     5    1    5 1    
     6    1    6 2    
     7    6    7 1    
     8    7    8 ar   
     9    8    9 ar   
    10    9   10 ar   
    11   10   11 ar   
    12   11   12 ar   
    13    7   12 ar   
    14   10   13 1    
    15    5   14 2    
    16    3   15 am   
    17   15   16 1    
    18   16   17 2    
    19   16   18 2    
    20   16   19 1    
    21   19   20 ar   
    22   20   21 ar   
    23   21   22 ar   
    24   22   23 ar   
    25   23   24 ar   
    26   19   24 ar   
    27   21   25 ar   
    28   25   26 ar   
    29   26   27 ar   
    30   27   28 ar   
    31   20   28 ar   
    32    6   29 1    
    33    8   30 1    
    34    9   31 1    
    35   11   32 1    
    36   12   33 1    
    37   15   34 1    
    38   22   35 1    
    39   23   36 1    
    40   24   37 1    
    41   25   38 1    
    42   26   39 1    
    43   27   40 1    
    44   28   41 1    
@<TRIPOS>SUBSTRUCTURE
     1 ****        2 TEMP              0 ****  ****    0 ROOT 
@<TRIPOS>NORMAL
@<TRIPOS>FF_PBC
FORCE_FIELD_SETUP_FEATURE Force Field Setup information
v1.0  0 0.000000 0.000000 0.000000 0.000000 0.000000 0.000000 NONE 0 0 0 0 1 0 0 0 0 0 0 0 0
