#	Name:			PISM00805
#	Creating user name:	baoopengkun
#	Creation time:		Sat Dec 15 02:32:28 2018

#	Modifying user name:	baoopengkun
#	Modification time:	Sat Dec 15 02:35:03 2018

@<TRIPOS>MOLECULE
PISM00805
   27    28     1     1     0
SMALL
GAST_HUCK


@<TRIPOS>ATOM
      1 S1          1.0162   16.9138  -50.0687 S.3       1 PHENYL     -0.0481 
      2 Cl2         3.2358   17.4506  -44.1762 Cl        1 PHENYL     -0.0771 
      3 C           2.6214   17.2951  -45.8093 C.ar      1 PHENYL      0.0330 
      4 C           1.2566   17.0853  -46.0256 C.ar      1 PHENYL     -0.0538 
      5 C           0.7658   16.9615  -47.3287 C.ar      1 PHENYL     -0.0489 
      6 C           1.6406   17.0485  -48.4155 C.ar      1 PHENYL      0.0211 
      7 C           3.0056   17.2586  -48.1996 C.ar      1 PHENYL     -0.0489 
      8 C           3.4960   17.3810  -46.8962 C.ar      1 PHENYL     -0.0538 
      9 C9          0.4124   18.9061  -51.8084 C.2       1 PHENYL     -0.0043 
     10 C10         1.3667   19.5426  -52.4857 C.2       1 PHENYL      0.0177 
     11 C11         2.3890   19.7663  -51.4671 C.2       1 PHENYL      0.2303 
     12 O12         2.0937   19.3265  -50.2478 O.3       1 PHENYL     -0.2521 
     13 C13         1.3951   19.9407  -53.9364 C.3       1 PHENYL     -0.0422 
     14 C14        -0.9208   18.4112  -52.3084 C.3       1 PHENYL     -0.0241 
     15 O15         3.4452   20.3249  -51.7079 O.2       1 PHENYL     -0.3822 
     16 C16         0.8029   18.6945  -50.3658 C.3       1 PHENYL      0.1803 
     17 H1          0.5795   17.0190  -45.1800 H         1 PHENYL      0.0606 
     18 H2         -0.2938   16.7981  -47.4971 H         1 PHENYL      0.0566 
     19 H3          3.6836   17.3283  -49.0443 H         1 PHENYL      0.0566 
     20 H4          4.5555   17.5433  -46.7264 H         1 PHENYL      0.0606 
     21 H5          2.3459   20.4405  -54.1749 H         1 PHENYL      0.0303 
     22 H6          0.5670   20.6327  -54.1499 H         1 PHENYL      0.0303 
     23 H7          1.2955   19.0472  -54.5704 H         1 PHENYL      0.0303 
     24 H8         -1.7287   18.8626  -51.7135 H         1 PHENYL      0.0429 
     25 H9         -1.0743   18.6767  -53.3647 H         1 PHENYL      0.0429 
     26 H10        -0.9755   17.3167  -52.2128 H         1 PHENYL      0.0429 
     27 H11         0.0810   19.1356  -49.6610 H         1 PHENYL      0.0994 
@<TRIPOS>BOND
     1    1    6 1    
     2    4    3 ar   
     3    8    3 ar   
     4    7    8 ar   
     5    6    7 ar   
     6    6    5 ar   
     7    5    4 ar   
     8    3    2 1    
     9   16    1 1    
    10    9   10 2    
    11   10   11 1    
    12   16   12 1    
    13   16    9 1    
    14   10   13 1    
    15    9   14 1    
    16   11   15 2    
    17   11   12 1    
    18    4   17 1    
    19    5   18 1    
    20    7   19 1    
    21    8   20 1    
    22   13   21 1    
    23   13   22 1    
    24   13   23 1    
    25   14   24 1    
    26   14   25 1    
    27   14   26 1    
    28   16   27 1    
@<TRIPOS>SUBSTRUCTURE
     1 PHENYL      3 PERM              0 ****  ****    0 ROOT 
@<TRIPOS>NORMAL
@<TRIPOS>FF_PBC
FORCE_FIELD_SETUP_FEATURE Force Field Setup information
v1.0  0 0.000000 0.000000 0.000000 0.000000 0.000000 0.000000 NONE 0 0 0 0 1 0 0 0 0 0 0 0 0
