#	Name:			PISM00222
#	Creating user name:	14062
#	Creation time:		Fri Apr 05 23:15:39 2019

#	Modifying user name:	14062
#	Modification time:	Fri Apr 05 23:18:43 2019

@<TRIPOS>MOLECULE
PISM00222
   38    39     1     1     0
SMALL
GAST_HUCK


@<TRIPOS>ATOM
      1 Cl1         5.2500   -0.0287    0.9934 Cl        1 BENZYL     -0.0937 
      2 O2          0.0124    1.5585    3.3093 O.3       1 BENZYL     -0.2999 
      3 C2          1.2191    1.1779    2.7204 C.ar      1 BENZYL      0.0816 
      4 C3          1.4341   -0.1407    2.3109 C.ar      1 BENZYL     -0.0383 
      5 C4          2.6788   -0.5248    1.7967 C.ar      1 BENZYL     -0.0474 
      6 C5          3.6885    0.4338    1.6488 C.ar      1 BENZYL      0.0295 
      7 C6          3.4668    1.7644    2.0240 C.ar      1 BENZYL     -0.0474 
      8 C7          2.2198    2.1346    2.5399 C.ar      1 BENZYL     -0.0383 
      9 C9          2.9486   -1.9802    1.3924 C.3       1 BENZYL     -0.0345 
     10 C10         4.5864    2.8045    1.8703 C.3       1 BENZYL     -0.0345 
     11 C11        -0.2672    1.0201    4.6200 C.3       1 BENZYL      0.1646 
     12 C12        -1.5149    1.6843    5.1705 C.2       1 BENZYL      0.2347 
     13 N13        -1.4818    2.3337    6.3077 N.pl3     1 BENZYL     -0.2235 
     14 C14        -2.5503    3.0000    6.8075 C.ar      1 BENZYL      0.1261 
     15 C15        -3.3947    3.7733    6.0012 C.ar      1 BENZYL     -0.0118 
     16 C16        -4.4794    4.4459    6.5691 C.ar      1 BENZYL     -0.0373 
     17 C17        -4.7036    4.3086    7.9422 C.ar      1 BENZYL     -0.0457 
     18 C18        -3.8221    3.5463    8.7137 C.ar      1 BENZYL     -0.0102 
     19 N19        -2.7694    2.9294    8.1381 N.ar      1 BENZYL     -0.2906 
     20 C20        -5.4043    5.3267    5.7172 C.3       1 BENZYL     -0.0269 
     21 O21        -2.5351    1.5771    4.5096 O.2       1 BENZYL     -0.3751 
     22 H1          0.6292   -0.8632    2.3923 H         1 BENZYL      0.0424 
     23 H2          2.0081    3.1656    2.8059 H         1 BENZYL      0.0424 
     24 H3          3.1942   -2.0281    0.3211 H         1 BENZYL      0.0390 
     25 H4          2.0774   -2.6230    1.5773 H         1 BENZYL      0.0390 
     26 H5          3.7953   -2.3702    1.9753 H         1 BENZYL      0.0390 
     27 H6          5.4647    2.4904    2.4554 H         1 BENZYL      0.0390 
     28 H7          4.2768    3.8009    2.2213 H         1 BENZYL      0.0390 
     29 H8          4.8693    2.8812    0.8097 H         1 BENZYL      0.0390 
     30 H9          0.6005    1.2021    5.2700 H         1 BENZYL      0.0868 
     31 H10        -0.4433   -0.0637    4.5645 H         1 BENZYL      0.0868 
     32 H11        -0.6245    2.3437    6.8741 H         1 BENZYL      0.2150 
     33 H12        -3.1992    3.8626    4.9402 H         1 BENZYL      0.0555 
     34 H13        -5.5588    4.7876    8.4091 H         1 BENZYL      0.0550 
     35 H14        -3.9826    3.4421    9.7814 H         1 BENZYL      0.0764 
     36 H15        -4.9543    5.5632    4.7402 H         1 BENZYL      0.0413 
     37 H16        -5.5866    6.2720    6.2516 H         1 BENZYL      0.0413 
     38 H17        -6.3621    4.8100    5.5542 H         1 BENZYL      0.0413 
@<TRIPOS>BOND
     1    2    3 1    
     2    3    4 ar   
     3    3    8 ar   
     4    8    7 ar   
     5    7    6 ar   
     6    6    5 ar   
     7    5    4 ar   
     8    6    1 1    
     9    5    9 1    
    10    7   10 1    
    11    2   11 1    
    12   11   12 1    
    13   12   13 1    
    14   13   14 1    
    15   14   15 ar   
    16   15   16 ar   
    17   16   17 ar   
    18   17   18 ar   
    19   18   19 ar   
    20   14   19 ar   
    21   16   20 1    
    22   12   21 2    
    23    4   22 1    
    24    8   23 1    
    25    9   24 1    
    26    9   25 1    
    27    9   26 1    
    28   10   27 1    
    29   10   28 1    
    30   10   29 1    
    31   11   30 1    
    32   11   31 1    
    33   13   32 1    
    34   15   33 1    
    35   17   34 1    
    36   18   35 1    
    37   20   36 1    
    38   20   37 1    
    39   20   38 1    
@<TRIPOS>SUBSTRUCTURE
     1 BENZYL      2 PERM              0 ****  ****    0 ROOT 
@<TRIPOS>NORMAL
@<TRIPOS>FF_PBC
FORCE_FIELD_SETUP_FEATURE Force Field Setup information
v1.0  0 0.000000 0.000000 0.000000 0.000000 0.000000 0.000000 NONE 0 0 0 0 1 0 0 0 0 0 0 0 0
