#	Name:			PISM00092
#	Creating user name:	Dell
#	Creation time:		Sun Oct 13 14:55:04 2019

#	Modifying user name:	Dell
#	Modification time:	Sun Oct 13 14:57:31 2019

@<TRIPOS>MOLECULE
PISM00092
   18    19     1     1     0
SMALL
GAST_HUCK


@<TRIPOS>ATOM
      1 C1         -8.1293   -0.1884    0.1412 C.3       1 <1>         0.1882 
      2 O2         -7.4697    1.1110    0.2777 O.3       1 <1>        -0.2896 
      3 C3         -6.1639    0.6837    0.1579 C.ar      1 <1>         0.1293 
      4 C4         -6.0412   -0.6804    0.2644 C.ar      1 <1>         0.1292 
      5 O5         -7.2500   -1.3109    0.4716 O.3       1 <1>        -0.2870 
      6 C6         -5.0587    1.5090   -0.0412 C.ar      1 <1>        -0.0202 
      7 C7         -3.7965    0.9014   -0.1253 C.ar      1 <1>         0.0415 
      8 C8         -3.6837   -0.4993   -0.0478 C.ar      1 <1>        -0.0601 
      9 C9         -4.8038   -1.3132    0.1700 C.ar      1 <1>        -0.0344 
     10 C10        -2.5861    1.7985   -0.3077 C.2       1 <1>         0.2497 
     11 O11        -2.7397    2.8846   -0.8392 O.2       1 <1>        -0.3626 
     12 O12        -1.3483    1.4868    0.0850 O.3       1 <1>        -0.2951 
     13 H1         -8.4055   -0.2980   -0.9221 H         1 <1>         0.0975 
     14 H2         -9.0564   -0.2253    0.7337 H         1 <1>         0.0975 
     15 H3         -5.1858    2.5832   -0.1224 H         1 <1>         0.0560 
     16 H4         -2.7204   -0.9820   -0.1676 H         1 <1>         0.0554 
     17 H5         -4.7209   -2.3912    0.2593 H         1 <1>         0.0525 
     18 H6         -1.2888    0.6810    0.5786 H         1 <1>         0.2521 
@<TRIPOS>BOND
     1    2    1 1    
     2    2    3 1    
     3    3    4 ar   
     4    4    5 1    
     5    1    5 1    
     6    3    6 ar   
     7    6    7 ar   
     8    7    8 ar   
     9    8    9 ar   
    10    4    9 ar   
    11    7   10 1    
    12   10   11 2    
    13   10   12 1    
    14    1   13 1    
    15    1   14 1    
    16    6   15 1    
    17    8   16 1    
    18    9   17 1    
    19   12   18 1    
@<TRIPOS>SUBSTRUCTURE
     1 ****        2 TEMP              0 ****  ****    0 ROOT 
@<TRIPOS>NORMAL
@<TRIPOS>FF_PBC
FORCE_FIELD_SETUP_FEATURE Force Field Setup information
v1.0  0 0.000000 0.000000 0.000000 0.000000 0.000000 0.000000 NONE 0 0 0 0 1 0 0 0 0 0 0 0 0
