#	Name:			PISM00005
#	Creating user name:	baoopengkun
#	Creation time:		Thu Nov 15 10:24:01 2018

#	Modifying user name:	baoopengkun
#	Modification time:	Thu Nov 15 10:27:44 2018

@<TRIPOS>MOLECULE
PISM00005
   44    47     1     2     0
SMALL
GAST_HUCK


@<TRIPOS>ATOM
      1 C1          2.1125    3.3238    0.5628 C.ar      1 <1>         0.0052 
      2 C2          3.4657    2.9586    0.5187 C.ar      1 <1>        -0.0583 
      3 C3          4.4400    3.7510    1.1319 C.ar      1 <1>        -0.0669 
      4 C4          4.0647    4.8894    1.8474 C.ar      1 <1>        -0.0675 
      5 C5          2.7119    5.2155    1.9659 C.ar      1 <1>        -0.0633 
      6 C6          1.7362    4.4245    1.3469 C.ar      1 <1>        -0.0354 
      7 C7          1.1258    2.6173   -0.1433 C.ar      1 <1>         0.0842 
      8 C8         -0.2265    2.8418    0.1376 C.ar      1 <1>        -0.0073 
      9 C9         -0.6001    3.9326    0.9277 C.ar      1 <1>        -0.0740 
     10 C10         0.3814    4.7333    1.5143 C.ar      1 <1>        -0.0771 
     11 N11         1.4694    1.6862   -1.1629 N.am      1 <1>        -0.2324 
     12 C12         0.6355    0.6867   -1.5077 C.2       1 <1>         0.2087 
     13 C13        -0.6329    0.5097   -0.7208 C.3       1 <1>         0.0614 
     14 C14        -1.2783    1.8882   -0.4446 C.3       1 <1>         0.0304 
     15 O15         0.8896   -0.0743   -2.4257 O.2       1 <1>        -0.3836 
     16 C16        -2.4799    1.6740    0.4953 C.ar      1 <1>        -0.0399 
     17 C17        -3.7986    1.6076    0.0228 C.ar      1 <1>        -0.0046 
     18 C18        -4.8598    1.4870    0.9251 C.ar      1 <1>        -0.0383 
     19 C19        -4.6216    1.3910    2.2973 C.ar      1 <1>         0.1151 
     20 C20        -3.3060    1.4199    2.7720 C.ar      1 <1>         0.1167 
     21 C21        -2.2469    1.5366    1.8695 C.ar      1 <1>        -0.0350 
     22 Br22       -4.1863    1.6659   -1.7904 Br        1 <1>        -0.0688 
     23 O23        -5.6995    1.2675    3.1770 O.3       1 <1>        -0.3287 
     24 C24        -5.8542   -0.0455    3.7399 C.3       1 <1>         0.0554 
     25 O25        -3.0364    1.3346    4.1396 O.3       1 <1>        -0.3244 
     26 C26        -3.3292    2.5379    4.8681 C.3       1 <1>         0.0575 
     27 H1          3.7889    2.0517    0.0210 H         1 <1>         0.0613 
     28 H2          5.4893    3.4814    1.0552 H         1 <1>         0.0572 
     29 H3          4.8207    5.5154    2.3119 H         1 <1>         0.0594 
     30 H4          2.4291    6.0894    2.5450 H         1 <1>         0.0583 
     31 H5         -1.6482    4.1665    1.0858 H         1 <1>         0.0531 
     32 H6          0.0786    5.5935    2.1039 H         1 <1>         0.0438 
     33 H7          2.3071    1.7715   -1.7014 H         1 <1>         0.2279 
     34 H8         -0.3679    0.0121    0.2245 H         1 <1>         0.0549 
     35 H9         -1.3389   -0.1334   -1.2701 H         1 <1>         0.0549 
     36 H10        -1.5756    2.3549   -1.3957 H         1 <1>         0.0589 
     37 H11        -5.8822    1.4643    0.5633 H         1 <1>         0.0518 
     38 H12        -1.2341    1.5208    2.2576 H         1 <1>         0.0460 
     39 H13        -6.7354   -0.0350    4.3978 H         1 <1>         0.0570 
     40 H14        -4.9760   -0.3374    4.3358 H         1 <1>         0.0570 
     41 H15        -6.0165   -0.7888    2.9438 H         1 <1>         0.0570 
     42 H16        -3.0660    2.3735    5.9232 H         1 <1>         0.0574 
     43 H17        -4.3981    2.7949    4.8094 H         1 <1>         0.0574 
     44 H18        -2.7312    3.3781    4.4814 H         1 <1>         0.0574 
@<TRIPOS>BOND
     1    2    1 ar   
     2    2    3 ar   
     3    3    4 ar   
     4    4    5 ar   
     5    6    5 ar   
     6    1    6 ar   
     7    1    7 ar   
     8    7    8 ar   
     9    8    9 ar   
    10   10    9 ar   
    11    6   10 ar   
    12    7   11 1    
    13   11   12 am   
    14   12   13 1    
    15   14   13 1    
    16    8   14 1    
    17   12   15 2    
    18   14   16 1    
    19   16   17 ar   
    20   17   18 ar   
    21   18   19 ar   
    22   20   19 ar   
    23   21   20 ar   
    24   16   21 ar   
    25   17   22 1    
    26   19   23 1    
    27   23   24 1    
    28   20   25 1    
    29   25   26 1    
    30    2   27 1    
    31    3   28 1    
    32    4   29 1    
    33    5   30 1    
    34    9   31 1    
    35   10   32 1    
    36   11   33 1    
    37   13   34 1    
    38   13   35 1    
    39   14   36 1    
    40   18   37 1    
    41   21   38 1    
    42   24   39 1    
    43   24   40 1    
    44   24   41 1    
    45   26   42 1    
    46   26   43 1    
    47   26   44 1    
@<TRIPOS>SUBSTRUCTURE
     1 ****        2 TEMP              0 ****  ****    0 ROOT 
@<TRIPOS>NORMAL
@<TRIPOS>FF_PBC
FORCE_FIELD_SETUP_FEATURE Force Field Setup information
v1.0  0 0.000000 0.000000 0.000000 0.000000 0.000000 0.000000 NONE 0 0 0 0 1 0 0 0 0 0 0 0 0
@<TRIPOS>RENDERING_ATTRS
BALL_AND_STICK  
*
