#	Name:			PISM00467
#	Creating user name:	Administrator
#	Creation time:		Sat Feb 23 00:08:02 2019

#	Modifying user name:	Administrator
#	Modification time:	Sat Feb 23 00:26:43 2019

@<TRIPOS>MOLECULE
PISM00467
   42    43     1     2     0
SMALL
GAST_HUCK


@<TRIPOS>ATOM
      1 C1          6.1510    0.6008    3.6255 C.2       1 PHENYL     -0.0038 
      2 N2          5.3924    0.0477    2.7761 N.2       1 PHENYL     -0.2468 
      3 N3          4.4650    0.9251    2.3396 N.pl3     1 PHENYL     -0.2257 
      4 C4          4.6409    2.0811    2.9237 C.2       1 PHENYL      0.0587 
      5 C5          5.6878    1.9878    3.7558 C.2       1 PHENYL     -0.0133 
      6 C6          6.3096    3.0272    4.6534 C.3       1 PHENYL      0.0433 
      7 N7          5.9740    2.7308    6.0389 N.am      1 PHENYL     -0.2366 
      8 S8          7.2748    3.0023    7.3659 S.o2      1 PHENYL      0.0517 
      9 O9          8.5683    2.6039    6.8490 O.2       1 PHENYL     -0.1531 
     10 O10         6.7973    2.4491    8.6167 O.2       1 PHENYL     -0.1531 
     11 C11         7.2228    4.7951    7.4768 C.3       1 PHENYL      0.1182 
     12 C           8.1884    5.2654    8.5719 C.ar      1 PHENYL     -0.0195 
     13 C           9.5654    5.2824    8.3245 C.ar      1 PHENYL     -0.0447 
     14 C          10.4569    5.7223    9.3066 C.ar      1 PHENYL      0.0343 
     15 C           9.9739    6.1550   10.5439 C.ar      1 PHENYL     -0.0409 
     16 C           8.6014    6.1302   10.8017 C.ar      1 PHENYL      0.0343 
     17 C           7.7125    5.6805    9.8215 C.ar      1 PHENYL     -0.0447 
     18 C18         7.2871   -0.0826    4.3334 C.3       1 PHENYL     -0.0319 
     19 C19         3.7608    3.2761    2.6494 C.3       1 PHENYL     -0.0085 
     20 C20         3.4437    0.5978    1.3561 C.3       1 PHENYL      0.0529 
     21 C21         4.6635    2.2329    6.4342 C.3       1 PHENYL      0.0190 
     22 H22        10.6625    6.5085   11.3033 H         1 PHENYL      0.0571 
     23 H1          5.9874    4.0481    4.4120 H         1 PHENYL      0.0535 
     24 H2          7.4003    2.9883    4.5153 H         1 PHENYL      0.0535 
     25 H3          6.1872    5.0961    7.6923 H         1 PHENYL      0.0682 
     26 H4          7.5138    5.2188    6.5045 H         1 PHENYL      0.0682 
     27 H27         9.9515    4.9526    7.3661 H         1 PHENYL      0.0564 
     28 Cl28       12.1790    5.7297    8.9865 Cl        1 PHENYL     -0.0725 
     29 Cl29        7.9957    6.6631   12.3563 Cl        1 PHENYL     -0.0725 
     30 H30         6.6506    5.6572   10.0414 H         1 PHENYL      0.0564 
     31 H9          7.7368    0.5712    5.0945 H         1 PHENYL      0.0367 
     32 H10         8.0555   -0.3628    3.5982 H         1 PHENYL      0.0367 
     33 H11         6.9117   -0.9916    4.8255 H         1 PHENYL      0.0367 
     34 H12         3.9504    4.1162    3.3293 H         1 PHENYL      0.0412 
     35 H13         2.7063    2.9877    2.7645 H         1 PHENYL      0.0412 
     36 H14         3.9289    3.6171    1.6178 H         1 PHENYL      0.0412 
     37 H15         2.4497    0.6097    1.8278 H         1 PHENYL      0.0585 
     38 H16         3.6336   -0.4114    0.9609 H         1 PHENYL      0.0585 
     39 H17         3.4656    1.3124    0.5201 H         1 PHENYL      0.0585 
     40 H18         4.6523    1.1354    6.3564 H         1 PHENYL      0.0443 
     41 H19         3.8751    2.6467    5.7875 H         1 PHENYL      0.0443 
     42 H20         4.4427    2.5181    7.4731 H         1 PHENYL      0.0443 
@<TRIPOS>BOND
     1    1    2 2    
     2    2    3 1    
     3    4    3 1    
     4    5    4 2    
     5    5    1 1    
     6    6    5 1    
     7    7    6 1    
     8    8    7 1    
     9    8    9 2    
    10    8   10 2    
    11   11    8 1    
    12   12   13 ar   
    13   12   17 ar   
    14   17   16 ar   
    15   16   15 ar   
    16   14   15 ar   
    17   13   14 ar   
    18   12   11 1    
    19    1   18 1    
    20    4   19 1    
    21    3   20 1    
    22    7   21 1    
    23   15   22 1    
    24    6   23 1    
    25    6   24 1    
    26   11   25 1    
    27   11   26 1    
    28   13   27 1    
    29   14   28 1    
    30   16   29 1    
    31   17   30 1    
    32   18   31 1    
    33   18   32 1    
    34   18   33 1    
    35   19   34 1    
    36   19   35 1    
    37   19   36 1    
    38   20   37 1    
    39   20   38 1    
    40   20   39 1    
    41   21   40 1    
    42   21   41 1    
    43   21   42 1    
@<TRIPOS>SUBSTRUCTURE
     1 PHENYL     12 PERM              0 ****  ****    0 ROOT 
@<TRIPOS>NORMAL
@<TRIPOS>FF_PBC
FORCE_FIELD_SETUP_FEATURE Force Field Setup information
v1.0  0 0.000000 0.000000 0.000000 0.000000 0.000000 0.000000 NONE 0 0 0 0 1 0 0 0 0 0 0 0 0
@<TRIPOS>RENDERING_ATTRS
ANTIALIASED_LINES 
*
