#	Name:			PISM00389
#	Creating user name:	baoopengkun
#	Creation time:		Sun Mar 31 17:16:08 2019

#	Modifying user name:	baoopengkun
#	Modification time:	Sun Mar 31 17:18:04 2019

@<TRIPOS>MOLECULE
PISM00389
   48    48     1     1     0
SMALL
GAST_HUCK


@<TRIPOS>ATOM
      1 C1         -5.3415    3.1176   -5.5722 C.3       1 <1>        -0.0563 
      2 C2         -4.4564    3.8338   -4.5015 C.3       1 <1>         0.0067 
      3 C3         -3.0850    4.1152   -5.2015 C.3       1 <1>        -0.0563 
      4 C4         -5.0769    5.2026   -4.0839 C.3       1 <1>        -0.0182 
      5 C5         -6.3352    5.0684   -3.1830 C.3       1 <1>         0.0562 
      6 C6         -6.0068    4.2438   -1.9114 C.3       1 <1>        -0.0208 
      7 C7         -5.4456    2.8370   -2.2545 C.3       1 <1>        -0.0019 
      8 C8         -4.2128    2.9794   -3.2092 C.3       1 <1>         0.1298 
      9 O9         -6.7682    6.3686   -2.7415 O.3       1 <1>        -0.3918 
     10 C10        -6.5753    1.8440   -2.6732 C.3       1 <1>        -0.0589 
     11 C11        -3.6915    1.6592   -3.5670 C.1       1 <1>        -0.0749 
     12 C12        -3.2618    0.5758   -3.8656 C.1       1 <1>        -0.0832 
     13 C13        -2.7466   -0.7193   -4.2306 C.2       1 <1>        -0.0119 
     14 C14        -1.4535   -0.7521   -5.0080 C.3       1 <1>        -0.0336 
     15 C15        -3.4157   -1.8295   -3.8862 C.2       1 <1>        -0.0671 
     16 C16        -4.7067   -1.8035   -3.1045 C.3       1 <1>         0.0156 
     17 S17        -4.9200   -3.3913   -2.2359 S.3       1 <1>        -0.1489 
     18 C18        -6.5023   -3.0890   -1.3820 C.3       1 <1>        -0.0071 
     19 C19        -6.9576   -4.4064   -0.7084 C.3       1 <1>        -0.0560 
     20 O20        -3.1688    3.6527   -2.4755 O.3       1 <1>        -0.3767 
     21 H1         -5.3944    3.7225   -6.4903 H         1 <1>         0.0236 
     22 H2         -6.3722    2.9572   -5.2521 H         1 <1>         0.0236 
     23 H3         -4.9169    2.1395   -5.8432 H         1 <1>         0.0236 
     24 H4         -2.6033    3.1747   -5.5097 H         1 <1>         0.0236 
     25 H5         -2.3851    4.6517   -4.5434 H         1 <1>         0.0236 
     26 H6         -3.2233    4.7358   -6.1002 H         1 <1>         0.0236 
     27 H7         -5.3325    5.7861   -4.9827 H         1 <1>         0.0296 
     28 H8         -4.3352    5.7827   -3.5123 H         1 <1>         0.0296 
     29 H9         -7.1647    4.6014   -3.7379 H         1 <1>         0.0593 
     30 H10        -6.9097    4.1522   -1.2854 H         1 <1>         0.0294 
     31 H11        -5.2556    4.8048   -1.3310 H         1 <1>         0.0294 
     32 H12        -5.0513    2.4043   -1.3169 H         1 <1>         0.0335 
     33 H13        -7.0015    6.9519   -3.4571 H         1 <1>         0.2098 
     34 H14        -7.3183    2.2808   -3.3480 H         1 <1>         0.0234 
     35 H15        -7.1352    1.5257   -1.7787 H         1 <1>         0.0234 
     36 H16        -6.1625    0.9426   -3.1462 H         1 <1>         0.0234 
     37 H17        -1.1216   -1.7749   -5.2411 H         1 <1>         0.0355 
     38 H18        -0.6667   -0.2559   -4.4204 H         1 <1>         0.0355 
     39 H19        -1.5876   -0.2047   -5.9532 H         1 <1>         0.0355 
     40 H20        -3.0270   -2.8031   -4.1853 H         1 <1>         0.0538 
     41 H21        -5.5468   -1.6636   -3.8013 H         1 <1>         0.0524 
     42 H22        -4.7128   -0.9984   -2.3544 H         1 <1>         0.0524 
     43 H23        -7.2571   -2.7531   -2.1111 H         1 <1>         0.0375 
     44 H24        -6.3577   -2.2999   -0.6269 H         1 <1>         0.0375 
     45 H25        -7.1277   -5.1825   -1.4710 H         1 <1>         0.0238 
     46 H26        -7.8948   -4.2450   -0.1533 H         1 <1>         0.0238 
     47 H27        -6.1881   -4.7632   -0.0059 H         1 <1>         0.0238 
     48 H28        -2.8535    3.1785   -1.7130 H         1 <1>         0.2113 
@<TRIPOS>BOND
     1    2    1 1    
     2    2    3 1    
     3    2    4 1    
     4    4    5 1    
     5    5    6 1    
     6    6    7 1    
     7    7    8 1    
     8    2    8 1    
     9    5    9 1    
    10    7   10 1    
    11    8   11 1    
    12   11   12 3    
    13   12   13 1    
    14   13   14 1    
    15   13   15 2    
    16   15   16 1    
    17   16   17 1    
    18   17   18 1    
    19   18   19 1    
    20    8   20 1    
    21    1   21 1    
    22    1   22 1    
    23    1   23 1    
    24    3   24 1    
    25    3   25 1    
    26    3   26 1    
    27    4   27 1    
    28    4   28 1    
    29    5   29 1    
    30    6   30 1    
    31    6   31 1    
    32    7   32 1    
    33    9   33 1    
    34   10   34 1    
    35   10   35 1    
    36   10   36 1    
    37   14   37 1    
    38   14   38 1    
    39   14   39 1    
    40   15   40 1    
    41   16   41 1    
    42   16   42 1    
    43   18   43 1    
    44   18   44 1    
    45   19   45 1    
    46   19   46 1    
    47   19   47 1    
    48   20   48 1    
@<TRIPOS>SUBSTRUCTURE
     1 ****        2 TEMP              0 ****  ****    0 ROOT 
@<TRIPOS>NORMAL
@<TRIPOS>FF_PBC
FORCE_FIELD_SETUP_FEATURE Force Field Setup information
v1.0  0 0.000000 0.000000 0.000000 0.000000 0.000000 0.000000 NONE 0 0 0 0 1 0 0 0 0 0 0 0 0
