#	Name:			PISM00056
#	Creating user name:	baoopengkun
#	Creation time:		Thu Dec 27 12:32:40 2018

#	Modifying user name:	baoopengkun
#	Modification time:	Thu Dec 27 12:34:19 2018

@<TRIPOS>MOLECULE
PISM00056
   34    35     1     1     0
SMALL
GAST_HUCK


@<TRIPOS>ATOM
      1 O1          2.5478   -6.9352  -22.7391 O.2       1 <1>        -0.3701 
      2 C2          2.3305   -5.9129  -22.1088 C.2       1 <1>         0.2561 
      3 C3          1.7844   -4.7596  -22.8626 C.2       1 <1>         0.1934 
      4 O4          2.2576   -4.4686  -24.0820 O.3       1 <1>        -0.2418 
      5 C5          1.5278   -3.3946  -24.3944 C.2       1 <1>         0.1579 
      6 C6          0.6386   -2.9921  -23.4861 C.2       1 <1>        -0.0443 
      7 C7          0.8151   -3.9600  -22.4075 C.2       1 <1>        -0.0374 
      8 Br8         1.7415   -2.4879  -26.0386 Br        1 <1>        -0.0086 
      9 N9          2.5757   -5.8892  -20.8251 N.pl3     1 <1>        -0.2415 
     10 C10         2.4192   -4.7816  -20.0598 C.ar      1 <1>         0.0641 
     11 C11         2.9656   -3.5584  -20.4652 C.ar      1 <1>        -0.0120 
     12 C12         2.7053   -2.3896  -19.7474 C.ar      1 <1>         0.1165 
     13 C13         1.9280   -2.4497  -18.5850 C.ar      1 <1>         0.1136 
     14 C14         1.4602   -3.6839  -18.1283 C.ar      1 <1>        -0.0296 
     15 C15         1.7137   -4.8544  -18.8519 C.ar      1 <1>         0.0633 
     16 O16         3.2230   -1.1753  -20.2031 O.3       1 <1>        -0.3236 
     17 C17         4.2928   -0.6441  -19.4039 C.3       1 <1>         0.0581 
     18 O18         1.6154   -1.2907  -17.8719 O.3       1 <1>        -0.3312 
     19 C19         0.6517   -0.4405  -18.5148 C.3       1 <1>         0.0545 
     20 C20         1.2237   -6.1894  -18.3322 C.2       1 <1>         0.2425 
     21 O21         1.5611   -7.3157  -18.9652 O.3       1 <1>        -0.2971 
     22 O22         0.5242   -6.2351  -17.3327 O.2       1 <1>        -0.3699 
     23 H1         -0.0510   -2.1504  -23.5331 H         1 <1>         0.0415 
     24 H2          0.2683   -3.9997  -21.4661 H         1 <1>         0.0450 
     25 H3          2.8923   -6.7628  -20.3729 H         1 <1>         0.2090 
     26 H4          3.6017   -3.5047  -21.3422 H         1 <1>         0.0439 
     27 H5          0.8949   -3.7210  -17.2033 H         1 <1>         0.0530 
     28 H6          3.9658   -0.4313  -18.3747 H         1 <1>         0.0576 
     29 H7          4.6296    0.2962  -19.8644 H         1 <1>         0.0576 
     30 H8          5.1395   -1.3476  -19.3780 H         1 <1>         0.0576 
     31 H9          0.4689    0.4250  -17.8612 H         1 <1>         0.0568 
     32 H10        -0.2980   -0.9779  -18.6629 H         1 <1>         0.0568 
     33 H11         1.0172   -0.0742  -19.4862 H         1 <1>         0.0568 
     34 H12         1.1836   -8.0795  -18.5412 H         1 <1>         0.2517 
@<TRIPOS>BOND
     1    2    1 2    
     2    2    3 1    
     3    3    4 1    
     4    4    5 1    
     5    5    6 2    
     6    6    7 1    
     7    3    7 2    
     8    5    8 1    
     9    2    9 1    
    10    9   10 1    
    11   10   11 ar   
    12   11   12 ar   
    13   12   13 ar   
    14   13   14 ar   
    15   14   15 ar   
    16   10   15 ar   
    17   12   16 1    
    18   16   17 1    
    19   13   18 1    
    20   18   19 1    
    21   15   20 1    
    22   20   21 1    
    23   20   22 2    
    24    6   23 1    
    25    7   24 1    
    26    9   25 1    
    27   11   26 1    
    28   14   27 1    
    29   17   28 1    
    30   17   29 1    
    31   17   30 1    
    32   19   31 1    
    33   19   32 1    
    34   19   33 1    
    35   21   34 1    
@<TRIPOS>SUBSTRUCTURE
     1 ****        2 TEMP              0 ****  ****    0 ROOT 
@<TRIPOS>NORMAL
@<TRIPOS>FF_PBC
FORCE_FIELD_SETUP_FEATURE Force Field Setup information
v1.0  0 0.000000 0.000000 0.000000 0.000000 0.000000 0.000000 NONE 0 0 0 0 1 0 0 0 0 0 0 0 0
