#	Name:			PISM00691
#	Creating user name:	baoopengkun
#	Creation time:		Sat Dec 08 17:29:07 2018

#	Modifying user name:	baoopengkun
#	Modification time:	Sat Dec 08 17:29:24 2018

@<TRIPOS>MOLECULE
PISM00691
   36    38     3     2     0
SMALL
GAST_HUCK


@<TRIPOS>ATOM
      1 C1         25.9453   32.8646  -10.5457 C.3       1 PHENYL      0.0630 
      2 C          25.3410   32.6318  -11.9463 C.ar      1 PHENYL     -0.0593 
      3 C          26.1507   32.1604  -12.9872 C.ar      1 PHENYL     -0.0549 
      4 C          25.6407   32.0196  -14.2810 C.ar      1 PHENYL     -0.0439 
      5 C          24.3003   32.3171  -14.5394 C.ar      1 PHENYL     -0.0441 
      6 C          23.4699   32.7319  -13.4951 C.ar      1 PHENYL     -0.0439 
      7 C          23.9841   32.8670  -12.2021 C.ar      1 PHENYL     -0.0549 
      8 C          27.3732   33.4435  -10.5573 C.ar      2 PHENYL     -0.0593 
      9 C          28.2561   33.1162   -9.5213 C.ar      2 PHENYL     -0.0549 
     10 C          29.5656   33.6052   -9.5180 C.ar      2 PHENYL     -0.0439 
     11 C          30.0012   34.4428  -10.5479 C.ar      2 PHENYL     -0.0441 
     12 C          29.1207   34.7925  -11.5750 C.ar      2 PHENYL     -0.0439 
     13 C          27.8123   34.3002  -11.5750 C.ar      2 PHENYL     -0.0549 
     14 C          25.1400   33.8659   -9.6978 C.ar      3 PHENYL     -0.0613 
     15 C          24.7321   33.5467   -8.3964 C.ar      3 PHENYL     -0.0551 
     16 C          24.0007   34.4639   -7.6361 C.ar      3 PHENYL     -0.0080 
     17 C          23.6776   35.7137   -8.1682 C.ar      3 PHENYL      0.1552 
     18 C          24.0846   36.0431   -9.4625 C.ar      3 PHENYL     -0.0080 
     19 C          24.8090   35.1212  -10.2234 C.ar      3 PHENYL     -0.0551 
     20 O20        25.9365   31.5714   -9.9152 O.3       1 PHENYL     -0.4540 
     21 F21        22.9838   36.5885   -7.4438 F         3 PHENYL     -0.1650 
     22 H1         27.1859   31.8968  -12.7948 H         1 PHENYL      0.0757 
     23 H2         26.2858   31.6782  -15.0850 H         1 PHENYL      0.0668 
     24 H3         23.9051   32.2235  -15.5464 H         1 PHENYL      0.0768 
     25 H4         22.4233   32.9476  -13.6881 H         1 PHENYL      0.0668 
     26 H5         23.3135   33.1504  -11.3981 H         1 PHENYL      0.0757 
     27 H6         27.9254   32.4793   -8.7070 H         2 PHENYL      0.0757 
     28 H7         30.2440   33.3347   -8.7145 H         2 PHENYL      0.0668 
     29 H29        31.0190   34.8209  -10.5496 H         2 PHENYL      0.0768 
     30 H9         29.4539   35.4479  -12.3741 H         2 PHENYL      0.0668 
     31 H10        27.1432   34.5940  -12.3763 H         2 PHENYL      0.0757 
     32 H11        24.9807   32.5842   -7.9617 H         3 PHENYL      0.0753 
     33 H12        23.6814   34.2108   -6.6307 H         3 PHENYL      0.0663 
     34 H13        23.8347   37.0163   -9.8719 H         3 PHENYL      0.0663 
     35 H35        25.1113   35.3882  -11.2297 H         3 PHENYL      0.0753 
     36 H15        26.4660   30.9334  -10.3818 H         1 PHENYL      0.1838 
@<TRIPOS>BOND
     1    2    3 ar   
     2    2    7 ar   
     3    7    6 ar   
     4    6    5 ar   
     5    5    4 ar   
     6    4    3 ar   
     7    2    1 1    
     8    8    9 ar   
     9    8   13 ar   
    10   13   12 ar   
    11   12   11 ar   
    12   11   10 ar   
    13   10    9 ar   
    14    1    8 1    
    15   14   15 ar   
    16   14   19 ar   
    17   19   18 ar   
    18   18   17 ar   
    19   17   16 ar   
    20   16   15 ar   
    21    1   14 1    
    22    1   20 1    
    23   17   21 1    
    24    3   22 1    
    25    4   23 1    
    26    5   24 1    
    27    6   25 1    
    28    7   26 1    
    29    9   27 1    
    30   10   28 1    
    31   11   29 1    
    32   12   30 1    
    33   13   31 1    
    34   15   32 1    
    35   16   33 1    
    36   18   34 1    
    37   19   35 1    
    38   20   36 1    
@<TRIPOS>SUBSTRUCTURE
     1 PHENYL      2 PERM              0 ****  ****    2 ROOT 
     2 PHENYL      8 PERM              0 ****  ****    1  
     3 PHENYL     14 PERM              0 ****  ****    1  
@<TRIPOS>NORMAL
@<TRIPOS>FF_PBC
FORCE_FIELD_SETUP_FEATURE Force Field Setup information
v1.0  0 0.000000 0.000000 0.000000 0.000000 0.000000 0.000000 NONE 0 0 0 0 1 0 0 0 0 0 0 0 0
@<TRIPOS>RENDERING_ATTRS
ANTIALIASED_LINES 
*
