#	Name:			PISM00884
#	Creating user name:	baoopengkun
#	Creation time:		Fri Dec 14 09:30:18 2018

#	Modifying user name:	baoopengkun
#	Modification time:	Fri Dec 14 09:38:15 2018

@<TRIPOS>MOLECULE
PISM00884
   41    43     1     1     0
SMALL
GAST_HUCK


@<TRIPOS>ATOM
      1 C1          6.3808   -5.6307   -3.8305 C.ar      1 <1>        -0.0636 
      2 C2          6.1959   -5.4563   -5.2058 C.ar      1 <1>        -0.0462 
      3 C3          5.5288   -4.3152   -5.6631 C.ar      1 <1>        -0.0636 
      4 C4          5.0462   -3.3685   -4.7548 C.ar      1 <1>        -0.0659 
      5 C5          5.2262   -3.5424   -3.3783 C.ar      1 <1>        -0.0257 
      6 C6          5.8979   -4.6833   -2.9230 C.ar      1 <1>        -0.0659 
      7 C7          4.6855   -2.4873   -2.4350 C.2       1 <1>         0.0658 
      8 N8          3.9432   -1.3351   -2.8886 N.2       1 <1>        -0.2181 
      9 N9          3.6701   -0.6816   -1.7468 N.2       1 <1>        -0.0868 
     10 N10         4.1753   -1.3580   -0.6945 N.pl3     1 <1>        -0.1247 
     11 C11         4.7908   -2.4321   -1.1029 C.2       1 <1>         0.0910 
     12 C12         4.0767   -0.9124    0.6838 C.3       1 <1>         0.2440 
     13 C13         2.8388   -1.5275    1.2884 C.2       1 <1>         0.0017 
     14 C14         3.1662   -2.3549    2.2790 C.2       1 <1>         0.0295 
     15 C15         4.6210   -2.2620    2.3358 C.2       1 <1>         0.2498 
     16 O16         5.1747   -1.4261    1.4660 O.3       1 <1>        -0.2284 
     17 O17         5.2903   -2.9040    3.1261 O.2       1 <1>        -0.3691 
     18 C18         2.2539   -3.1788    3.1458 C.3       1 <1>        -0.0323 
     19 C19         8.2101   -6.2066   -6.5181 C.3       1 <1>        -0.0439 
     20 C20         8.7976   -7.2507   -7.5057 C.3       1 <1>        -0.0542 
     21 C21         6.7234   -6.5056   -6.1946 C.3       1 <1>        -0.0207 
     22 C22        10.2849   -6.9480   -7.8238 C.3       1 <1>        -0.0651 
     23 H1          6.9042   -6.5068   -3.4608 H         1 <1>         0.0549 
     24 H2          5.3838   -4.1573   -6.7272 H         1 <1>         0.0549 
     25 H3          4.5280   -2.4905   -5.1275 H         1 <1>         0.0568 
     26 H4          6.0547   -4.8532   -1.8648 H         1 <1>         0.0568 
     27 H5          5.2957   -3.1456   -0.4548 H         1 <1>         0.1060 
     28 H6          4.0530    0.1881    0.7321 H         1 <1>         0.1243 
     29 H7          1.8229   -1.3251    0.9509 H         1 <1>         0.0709 
     30 H8          1.9550   -4.0875    2.6026 H         1 <1>         0.0347 
     31 H9          1.3542   -2.6019    3.4075 H         1 <1>         0.0347 
     32 H10         2.7719   -3.4696    4.0721 H         1 <1>         0.0347 
     33 H11         8.7926   -6.2186   -5.5820 H         1 <1>         0.0287 
     34 H12         8.2856   -5.1983   -6.9579 H         1 <1>         0.0287 
     35 H13         8.2180   -7.2386   -8.4438 H         1 <1>         0.0264 
     36 H14         8.7213   -8.2590   -7.0653 H         1 <1>         0.0264 
     37 H15         6.1245   -6.4890   -7.1192 H         1 <1>         0.0421 
     38 H16         6.6255   -7.5096   -5.7517 H         1 <1>         0.0421 
     39 H17        10.8881   -6.9753   -6.9028 H         1 <1>         0.0230 
     40 H18        10.3846   -5.9519   -8.2825 H         1 <1>         0.0230 
     41 H19        10.6830   -7.6981   -8.5253 H         1 <1>         0.0230 
@<TRIPOS>BOND
     1    2    1 ar   
     2    2    3 ar   
     3    3    4 ar   
     4    4    5 ar   
     5    5    6 ar   
     6    1    6 ar   
     7    5    7 1    
     8    7    8 1    
     9    8    9 2    
    10    9   10 1    
    11   10   11 1    
    12    7   11 2    
    13   10   12 1    
    14   12   13 1    
    15   13   14 2    
    16   14   15 1    
    17   15   16 1    
    18   12   16 1    
    19   15   17 2    
    20   14   18 1    
    21   21   19 1    
    22   19   20 1    
    23    2   21 1    
    24   20   22 1    
    25    1   23 1    
    26    3   24 1    
    27    4   25 1    
    28    6   26 1    
    29   11   27 1    
    30   12   28 1    
    31   13   29 1    
    32   18   30 1    
    33   18   31 1    
    34   18   32 1    
    35   19   33 1    
    36   19   34 1    
    37   20   35 1    
    38   20   36 1    
    39   21   37 1    
    40   21   38 1    
    41   22   39 1    
    42   22   40 1    
    43   22   41 1    
@<TRIPOS>SUBSTRUCTURE
     1 ****        2 TEMP              0 ****  ****    0 ROOT 
@<TRIPOS>NORMAL
@<TRIPOS>FF_PBC
FORCE_FIELD_SETUP_FEATURE Force Field Setup information
v1.0  0 0.000000 0.000000 0.000000 0.000000 0.000000 0.000000 NONE 0 0 0 0 1 0 0 0 0 0 0 0 0
