#	Name:			PISM00204
#	Creating user name:	14062
#	Creation time:		Mon Apr 01 20:10:24 2019

#	Modifying user name:	14062
#	Modification time:	Mon Apr 01 20:19:45 2019

@<TRIPOS>MOLECULE
PISM00204
   57    58     1     2     0
SMALL
GAST_HUCK


@<TRIPOS>ATOM
      1 N1          0.3752    4.7572   -0.7346 N.pl3     1 <1>        -0.2903 
      2 C2         -0.6476    3.9012   -0.5426 C.ar      1 <1>         0.0586 
      3 C3         -1.8318    4.5129   -0.9057 C.ar      1 <1>        -0.0220 
      4 C4         -3.0629    3.8650   -0.8182 C.ar      1 <1>        -0.0747 
      5 C5         -3.0469    2.5500   -0.3346 C.ar      1 <1>        -0.0445 
      6 C6         -1.8462    1.9254    0.0377 C.ar      1 <1>         0.1175 
      7 C7         -1.3724    5.8793   -1.3457 C.2       1 <1>        -0.0254 
      8 C8         -0.0360    5.9086   -1.2026 C.2       1 <1>         0.0175 
      9 C9         -0.6189    2.5929   -0.0613 C.ar      1 <1>        -0.0114 
     10 C10        -2.2814    6.9720   -1.8484 C.3       1 <1>         0.0758 
     11 C11        -1.6024    8.3141   -1.6601 C.2       1 <1>         0.2395 
     12 O12        -1.2402    8.9890   -2.6080 O.2       1 <1>        -0.3687 
     13 O13        -1.3791    8.7644   -0.4207 O.3       1 <1>        -0.2917 
     14 C14        -2.6518    6.6737   -3.3283 C.3       1 <1>        -0.0278 
     15 C15        -5.5417    8.0027   -7.3572 C.3       1 <1>        -0.0328 
     16 C16        -6.7377    8.8573   -7.8522 C.3       1 <1>         0.0328 
     17 N17        -6.8956    8.6885   -9.2952 N.am      1 <1>        -0.2625 
     18 C18        -7.4705    7.5727   -9.7896 C.2       1 <1>         0.3200 
     19 O19        -7.9001    6.6729   -9.0880 O.2       1 <1>        -0.3775 
     20 O20        -7.5031    7.5867  -11.1297 O.3       1 <1>        -0.2581 
     21 C21        -8.0711    6.4309  -11.7882 C.3       1 <1>         0.0905 
     22 C22        -7.2485    5.1377  -11.5173 C.3       1 <1>        -0.0320 
     23 C23        -7.9515    6.7849  -13.2979 C.3       1 <1>        -0.0320 
     24 C24        -9.5764    6.2277  -11.4474 C.3       1 <1>        -0.0320 
     25 H25        -3.9781    2.0007   -0.2447 H         1 <1>         0.0508 
     26 C26        -3.7916    7.5971   -3.8429 C.3       1 <1>        -0.0496 
     27 H1          1.3624    4.5301   -0.5388 H         1 <1>         0.2211 
     28 H2         -3.9841    4.3574   -1.1108 H         1 <1>         0.0537 
     29 C29        -4.1028    7.3298   -5.3411 C.3       1 <1>        -0.0527 
     30 F30        -1.8726    0.6758    0.4941 F         1 <1>        -0.1918 
     31 C31        -5.2734    8.2194   -5.8426 C.3       1 <1>        -0.0512 
     32 H4          0.6061    6.7583   -1.4404 H         1 <1>         0.0787 
     33 H5          0.3106    2.1138    0.2237 H         1 <1>         0.0520 
     34 H6         -3.1991    6.9612   -1.2400 H         1 <1>         0.0634 
     35 H7         -1.6684    8.1819    0.2708 H         1 <1>         0.2540 
     36 H8         -2.9913    5.6278   -3.4134 H         1 <1>         0.0307 
     37 H9         -1.7525    6.7892   -3.9551 H         1 <1>         0.0307 
     38 H10        -5.7539    6.9378   -7.5463 H         1 <1>         0.0284 
     39 H11        -4.6452    8.2813   -7.9348 H         1 <1>         0.0284 
     40 H12        -6.5526    9.9186   -7.6146 H         1 <1>         0.0519 
     41 H13        -7.6593    8.5562   -7.3265 H         1 <1>         0.0519 
     42 H14        -6.5414    9.3921   -9.9141 H         1 <1>         0.1867 
     43 H15        -7.5866    4.3249  -12.1779 H         1 <1>         0.0260 
     44 H16        -7.3516    4.7874  -10.4812 H         1 <1>         0.0260 
     45 H17        -6.1822    5.3284  -11.7124 H         1 <1>         0.0260 
     46 H18        -6.8970    6.9531  -13.5657 H         1 <1>         0.0260 
     47 H19        -8.5116    7.7072  -13.5166 H         1 <1>         0.0260 
     48 H20        -8.3475    5.9780  -13.9334 H         1 <1>         0.0260 
     49 H21       -10.1174    7.1771  -11.5774 H         1 <1>         0.0260 
     50 H22        -9.7300    5.8811  -10.4164 H         1 <1>         0.0260 
     51 H23       -10.0205    5.4761  -12.1174 H         1 <1>         0.0260 
     52 H24        -3.5044    8.6537   -3.7223 H         1 <1>         0.0268 
     53 H25        -4.7008    7.4196   -3.2450 H         1 <1>         0.0268 
     54 H26        -4.3690    6.2688   -5.4786 H         1 <1>         0.0265 
     55 H27        -3.2014    7.5404   -5.9400 H         1 <1>         0.0265 
     56 H28        -6.1846    7.9768   -5.2711 H         1 <1>         0.0266 
     57 H29        -5.0275    9.2797   -5.6673 H         1 <1>         0.0266 
@<TRIPOS>BOND
     1    8    1 1    
     2    1    2 1    
     3    2    3 ar   
     4    7    3 1    
     5    3    4 ar   
     6    4    5 ar   
     7    5    6 ar   
     8    7    8 2    
     9    6    9 ar   
    10    2    9 ar   
    11    7   10 1    
    12   10   11 1    
    13   11   12 2    
    14   11   13 1    
    15   10   14 1    
    16   31   15 1    
    17   15   16 1    
    18   16   17 1    
    19   17   18 am   
    20   18   19 2    
    21   18   20 1    
    22   20   21 1    
    23   21   22 1    
    24   21   23 1    
    25   21   24 1    
    26    5   25 1    
    27   14   26 1    
    28    1   27 1    
    29    4   28 1    
    30   26   29 1    
    31    6   30 1    
    32   29   31 1    
    33    8   32 1    
    34    9   33 1    
    35   10   34 1    
    36   13   35 1    
    37   14   36 1    
    38   14   37 1    
    39   15   38 1    
    40   15   39 1    
    41   16   40 1    
    42   16   41 1    
    43   17   42 1    
    44   22   43 1    
    45   22   44 1    
    46   22   45 1    
    47   23   46 1    
    48   23   47 1    
    49   23   48 1    
    50   24   49 1    
    51   24   50 1    
    52   24   51 1    
    53   26   52 1    
    54   26   53 1    
    55   29   54 1    
    56   29   55 1    
    57   31   56 1    
    58   31   57 1    
@<TRIPOS>SUBSTRUCTURE
     1 ****        7 TEMP              0 ****  ****    0 ROOT 
@<TRIPOS>NORMAL
@<TRIPOS>FF_PBC
FORCE_FIELD_SETUP_FEATURE Force Field Setup information
v1.0  0 0.000000 0.000000 0.000000 0.000000 0.000000 0.000000 NONE 0 0 0 0 1 0 0 0 0 0 0 0 0
@<TRIPOS>RENDERING_ATTRS
ANTIALIASED_LINES 
1,2,3,4,5,6,7,8,9,10,11,12,13,14,15,16,17,18,19,20,21,22,23,24,25,26,29,31
