#	Name:			PISM01039
#	Creating user name:	malab
#	Creation time:		Thu Jul 04 18:17:05 2019

#	Modifying user name:	malab
#	Modification time:	Thu Jul 04 18:26:59 2019

@<TRIPOS>MOLECULE
PISM01039
   46    47     1     1     0
SMALL
GAST_HUCK


@<TRIPOS>ATOM
      1 N1          3.2725    9.8185   29.1989 N.2       1 CN         -0.1741 
      2 C2          4.2802   10.0139   29.9506 C.2       1 CN          0.0646 
      3 N3          4.4948   11.4105   29.7011 N.2       1 CN         -0.2835 
      4 C4          3.6721   11.9122   28.8859 C.2       1 CN          0.1476 
      5 N5          2.8735   10.9397   28.5374 N.pl3     1 CN         -0.1263 
      6 C6          1.8796   11.0353   27.6892 C.2       1 CN          0.1307 
      7 C7          1.1323    9.7423   27.3978 C.3       1 CN          0.1302 
      8 C8          1.7703    8.9023   26.2386 C.3       1 CN          0.0037 
      9 C9          3.2535    8.5209   26.5264 C.3       1 CN         -0.0553 
     10 C10         0.9466    7.5930   26.0499 C.3       1 CN         -0.0553 
     11 C11         1.7258    9.7145   24.9085 C.3       1 CN         -0.0553 
     12 O12         0.9165    8.9681   28.5929 O.3       1 CN         -0.3724 
     13 C13         1.5083   12.1759   27.0817 C.2       1 CN         -0.0422 
     14 H14         0.6972   12.1828   26.3539 H         1 CN          0.0294 
     15 H1          4.8205    9.3216   30.5946 H         1 CN          0.0876 
     16 H2          4.3910   12.6499   29.2425 H         1 CN          0.1382 
     17 H3          0.1039    9.9909   27.0896 H         1 CN          0.0837 
     18 H4          3.3411    7.9007   27.4299 H         1 CN          0.0238 
     19 H5          3.8764    9.4190   26.6514 H         1 CN          0.0238 
     20 H6          3.6681    7.9421   25.6868 H         1 CN          0.0238 
     21 H7          1.3515    6.9906   25.2221 H         1 CN          0.0238 
     22 H8         -0.1056    7.8232   25.8228 H         1 CN          0.0238 
     23 H9          0.9761    6.9789   26.9628 H         1 CN          0.0238 
     24 H10         2.3499   10.6181   24.9769 H         1 CN          0.0238 
     25 H11         0.6957   10.0189   24.6677 H         1 CN          0.0238 
     26 H12         2.1044    9.1090   24.0707 H         1 CN          0.0238 
     27 H13         1.7318    8.7319   29.0247 H         1 CN          0.2140 
     28 C28         2.1431   13.5266   27.3231 C.ar      1 CN         -0.0613 
     29 C29         2.0142   14.1575   28.5635 C.ar      1 CN         -0.0766 
     30 C30         2.6411   15.3854   28.7934 C.ar      1 CN         -0.0503 
     31 C31         3.3709   16.0124   27.7765 C.ar      1 CN          0.0344 
     32 C32         3.4635   15.3922   26.5247 C.ar      1 CN         -0.0503 
     33 C33         2.8580   14.1525   26.2991 C.ar      1 CN         -0.0766 
     34 N34         3.9801   17.2056   28.0008 N.pl3     1 CN         -0.3178 
     35 C35         3.2919   18.2582   28.7485 C.3       1 CN          0.0143 
     36 C36         5.3312   17.4521   27.4969 C.3       1 CN          0.0143 
     37 H15         1.4284   13.6912   29.3497 H         1 CN          0.0522 
     38 H16         2.5608   15.8440   29.7728 H         1 CN          0.0504 
     39 H17         4.0020   15.8723   25.7151 H         1 CN          0.0504 
     40 H18         2.9437   13.6745   25.3284 H         1 CN          0.0522 
     41 H19         2.1976   18.1603   28.6698 H         1 CN          0.0476 
     42 H20         3.5683   19.2489   28.3560 H         1 CN          0.0476 
     43 H21         3.5833   18.2056   29.8084 H         1 CN          0.0476 
     44 H22         5.8950   16.5137   27.3748 H         1 CN          0.0476 
     45 H23         5.8902   18.0895   28.1993 H         1 CN          0.0476 
     46 H24         5.2722   17.9660   26.5255 H         1 CN          0.0476 
@<TRIPOS>BOND
     1    1    2 2    
     2    2    3 1    
     3    4    3 2    
     4    5    4 1    
     5    5    1 1    
     6    6    5 1    
     7    6    7 1    
     8    7    8 1    
     9    8    9 1    
    10    8   10 1    
    11    8   11 1    
    12    7   12 1    
    13   13    6 2    
    14   14   13 1    
    15    2   15 1    
    16    4   16 1    
    17    7   17 1    
    18    9   18 1    
    19    9   19 1    
    20    9   20 1    
    21   10   21 1    
    22   10   22 1    
    23   10   23 1    
    24   11   24 1    
    25   11   25 1    
    26   11   26 1    
    27   12   27 1    
    28   13   28 1    
    29   28   29 ar   
    30   29   30 ar   
    31   30   31 ar   
    32   31   32 ar   
    33   32   33 ar   
    34   28   33 ar   
    35   31   34 1    
    36   34   35 1    
    37   34   36 1    
    38   29   37 1    
    39   30   38 1    
    40   32   39 1    
    41   33   40 1    
    42   35   41 1    
    43   35   42 1    
    44   35   43 1    
    45   36   44 1    
    46   36   45 1    
    47   36   46 1    
@<TRIPOS>SUBSTRUCTURE
     1 CN         14 PERM              0 ****  ****    0 ROOT 
@<TRIPOS>NORMAL
@<TRIPOS>FF_PBC
FORCE_FIELD_SETUP_FEATURE Force Field Setup information
v1.0  0 0.000000 0.000000 0.000000 0.000000 0.000000 0.000000 NONE 0 0 0 0 1 0 0 0 0 0 0 0 0
