#	Name:			PISM01059.1
#	Creating user name:	malab
#	Creation time:		Thu Jul 04 18:27:40 2019

#	Modifying user name:	malab
#	Modification time:	Thu Jul 04 18:41:21 2019

@<TRIPOS>MOLECULE
PISM01059.1
   48    49     1     1     0
SMALL
GAST_HUCK


@<TRIPOS>ATOM
      1 C1          0.1588    5.0391   39.2018 C.3       1 <1>        -0.2179 
      2 C2         -0.2614    5.8623   40.4587 C.3       1 <1>        -0.1348 
      3 C3         -1.4938    6.7656   40.2112 C.3       1 <1>         0.0479 
      4 C4         -1.1527    7.7392   39.0617 C.3       1 <1>         0.0299 
      5 C5         -0.5153    7.0728   37.8639 C.2       1 <1>        -0.0391 
      6 C6          0.0722    5.8657   37.9302 C.2       1 <1>        -0.1652 
      7 C7          1.6179    4.5331   39.4259 C.3       1 <1>        -0.1767 
      8 C8         -0.7622    3.7963   38.9998 C.3       1 <1>        -0.1767 
      9 H9         -0.2779    8.9144   36.7853 H         1 <1>         0.0550 
     10 C10         0.6606    5.2596   36.7238 C.2       1 <1>        -0.0986 
     11 C11        -0.1212    4.7033   35.7920 C.2       1 <1>        -0.0443 
     12 C12         0.3976    4.0308   34.5845 C.2       1 <1>         0.0981 
     13 C13        -0.5836    7.8772   36.5825 C.3       1 <1>        -0.0050 
     14 H1          0.5672    6.5317   40.7444 H         1 <1>        -0.0058 
     15 C15        -0.3005    4.1016   33.4420 C.2       1 <1>         0.2050 
     16 C16         1.6741    3.2872   34.6757 C.2       1 <1>        -0.0299 
     17 O17        -1.4510    4.7958   33.4118 O.3       1 <1>        -0.1673 
     18 C18        -2.1107    4.8466   32.1309 C.3       1 <1>         0.2755 
     19 O19        -3.3268    5.5938   32.3252 O.3       1 <1>        -0.2239 
     20 C20        -3.2028    6.6794   31.5723 C.2       1 <1>         0.2501 
     21 O21        -4.0672    7.5368   31.5311 O.2       1 <1>        -0.3690 
     22 C22        -1.9709    6.7678   30.7981 C.2       1 <1>         0.0298 
     23 C23        -1.3157    5.6571   31.1299 C.2       1 <1>         0.0064 
     24 C24        -1.5399    7.8563   29.8530 C.3       1 <1>        -0.0323 
     25 H2         -0.4511    5.1949   41.3145 H         1 <1>        -0.0058 
     26 H3         -1.7016    7.3530   41.1251 H         1 <1>         0.0610 
     27 O27        -2.6917    6.0414   39.8827 O.3       1 <1>        -0.3904 
     28 H5         -0.4421    8.5002   39.4206 H         1 <1>         0.0610 
     29 H6         -2.0857    8.2452   38.7689 H         1 <1>         0.0610 
     30 H7          1.6917    4.0002   40.3867 H         1 <1>        -0.0121 
     31 H8          2.3192    5.3819   39.4439 H         1 <1>        -0.0121 
     32 H9          1.9436    3.8394   38.6360 H         1 <1>        -0.0121 
     33 H10        -0.3701    3.1404   38.2072 H         1 <1>        -0.0121 
     34 H11        -1.7780    4.0894   38.7015 H         1 <1>        -0.0121 
     35 H12        -0.8254    3.2020   39.9241 H         1 <1>        -0.0121 
     36 H4          2.1854    2.8903   33.7993 H         1 <1>         0.1074 
     37 H14         1.7456    5.2816   36.6352 H         1 <1>         0.0544 
     38 H15        -1.2005    4.7513   35.9462 H         1 <1>         0.0528 
     39 H16        -1.6223    7.8792   36.2204 H         1 <1>         0.0550 
     40 H17         0.0608    7.4979   35.7777 H         1 <1>         0.0550 
     41 H13         2.1396    3.1075   35.6454 H         1 <1>         0.1074 
     42 H24        -2.8966    5.3840   40.5394 H         1 <1>         0.2101 
     43 H18         0.1038    3.5829   32.5701 H         1 <1>         0.2277 
     44 H19        -2.3780    3.8478   31.7447 H         1 <1>         0.1296 
     45 H20        -0.3401    5.3870   30.7279 H         1 <1>         0.0712 
     46 H21        -0.5150    8.1774   30.0916 H         1 <1>         0.0347 
     47 H22        -2.2124    8.7233   29.9373 H         1 <1>         0.0347 
     48 H23        -1.5693    7.4809   28.8194 H         1 <1>         0.0347 
@<TRIPOS>BOND
     1    2    1 1    
     2    2    3 1    
     3    3    4 1    
     4    4    5 1    
     5    5    6 2    
     6    1    6 1    
     7    1    7 1    
     8    1    8 1    
     9   13    9 1    
    10    6   10 1    
    11   10   11 2    
    12   11   12 1    
    13    5   13 1    
    14    2   14 1    
    15   12   15 2    
    16   12   16 1    
    17   15   17 1    
    18   17   18 1    
    19   18   19 1    
    20   19   20 1    
    21   20   21 2    
    22   20   22 1    
    23   22   23 2    
    24   18   23 1    
    25   22   24 1    
    26    2   25 1    
    27    3   26 1    
    28    3   27 1    
    29    4   28 1    
    30    4   29 1    
    31    7   30 1    
    32    7   31 1    
    33    7   32 1    
    34    8   33 1    
    35    8   34 1    
    36    8   35 1    
    37   16   36 1    
    38   10   37 1    
    39   11   38 1    
    40   13   39 1    
    41   13   40 1    
    42   16   41 1    
    43   27   42 1    
    44   15   43 1    
    45   18   44 1    
    46   23   45 1    
    47   24   46 1    
    48   24   47 1    
    49   24   48 1    
@<TRIPOS>SUBSTRUCTURE
     1 ****        2 TEMP              0 ****  ****    0 ROOT 
@<TRIPOS>NORMAL
@<TRIPOS>FF_PBC
FORCE_FIELD_SETUP_FEATURE Force Field Setup information
v1.0  0 0.000000 0.000000 0.000000 0.000000 0.000000 0.000000 NONE 0 0 0 0 1 0 0 0 0 0 0 0 0
