#	Name:			PISM00178
#	Creating user name:	14062
#	Creation time:		Sun Mar 31 15:38:02 2019

#	Modifying user name:	14062
#	Modification time:	Sun Mar 31 15:54:01 2019

@<TRIPOS>MOLECULE
PISM00178
   22    23     1     2     0
SMALL
GAST_HUCK


@<TRIPOS>ATOM
      1 C1         -0.6528    8.1570   -8.3358 C.ar      1 <1>        -0.0484 
      2 C2          0.0799    7.1128   -8.9085 C.ar      1 <1>        -0.0524 
      3 C3          0.4491    5.9975   -8.1446 C.ar      1 <1>         0.0146 
      4 C4          0.0686    5.9524   -6.7975 C.ar      1 <1>        -0.0385 
      5 C5         -0.6639    6.9936   -6.2205 C.ar      1 <1>         0.0533 
      6 C6         -1.0269    8.1010   -6.9913 C.ar      1 <1>         0.0528 
      7 C7          1.2429    4.8365   -8.7134 C.2       1 <1>         0.1284 
      8 C8          1.6704    4.7528   -9.9775 C.2       1 <1>        -0.0440 
      9 C9          2.3678    3.4698  -10.0128 C.2       1 <1>        -0.0363 
     10 C10         2.2350    3.0132   -8.7665 C.2       1 <1>         0.1988 
     11 O11         1.5578    3.8020   -7.9242 O.3       1 <1>        -0.2420 
     12 C12         2.7861    1.7224   -8.3050 C.2       1 <1>         0.2865 
     13 O13         3.4022    1.0110   -9.0844 O.2       1 <1>        -0.3613 
     14 O14         2.6103    1.3359   -7.0389 O.3       1 <1>        -0.2936 
     15 H1         -0.9341    9.0168   -8.9357 H         1 <1>         0.0619 
     16 H2          0.3517    7.1916   -9.9537 H         1 <1>         0.0613 
     17 Cl17       -1.9454    9.4158   -6.2854 Cl        1 <1>        -0.0710 
     18 H3          0.3397    5.1024   -6.1802 H         1 <1>         0.0618 
     19 H4          1.5640    5.4296  -10.8225 H         1 <1>         0.0411 
     20 H5          2.8731    3.0038  -10.8581 H         1 <1>         0.0461 
     21 Cl21       -1.1224    6.9024   -4.5315 Cl        1 <1>        -0.0705 
     22 H6          3.0117    0.4904   -6.8704 H         1 <1>         0.2516 
@<TRIPOS>BOND
     1    2    1 ar   
     2    2    3 ar   
     3    3    4 ar   
     4    4    5 ar   
     5    1    6 ar   
     6    5    6 ar   
     7    3    7 1    
     8    7    8 2    
     9    8    9 1    
    10   10    9 2    
    11   11   10 1    
    12    7   11 1    
    13   10   12 1    
    14   12   13 2    
    15   12   14 1    
    16    1   15 1    
    17    2   16 1    
    18    6   17 1    
    19    4   18 1    
    20    8   19 1    
    21    9   20 1    
    22    5   21 1    
    23   14   22 1    
@<TRIPOS>SUBSTRUCTURE
     1 ****        2 TEMP              0 ****  ****    0 ROOT 
@<TRIPOS>NORMAL
@<TRIPOS>FF_PBC
FORCE_FIELD_SETUP_FEATURE Force Field Setup information
v1.0  0 0.000000 0.000000 0.000000 0.000000 0.000000 0.000000 NONE 0 0 0 0 1 0 0 0 0 0 0 0 0
@<TRIPOS>RENDERING_ATTRS
ANTIALIASED_LINES 
*
