#	Name:			PISM00045
#	Creating user name:	baoopengkun
#	Creation time:		Tue Dec 11 22:09:56 2018

#	Modifying user name:	baoopengkun
#	Modification time:	Tue Dec 11 22:13:08 2018

@<TRIPOS>MOLECULE
PISM00045
   41    44     1     1     0
SMALL
GAST_HUCK


@<TRIPOS>ATOM
      1 C1         -2.1782   -3.9177  -24.5493 C.ar      1 <1>        -0.0545 
      2 C2         -1.8418   -4.6681  -25.6788 C.ar      1 <1>         0.0330 
      3 C3         -0.5607   -5.2132  -25.7945 C.ar      1 <1>        -0.0545 
      4 C4          0.3815   -5.0070  -24.7826 C.ar      1 <1>        -0.0575 
      5 C5          0.0528   -4.2488  -23.6529 C.ar      1 <1>        -0.0171 
      6 C6         -1.2349   -3.7114  -23.5383 C.ar      1 <1>        -0.0575 
      7 Cl7        -3.0234   -4.9252  -26.9461 Cl        1 <1>        -0.0771 
      8 C8          1.1030   -4.0182  -22.5546 C.3       1 <1>         0.0819 
      9 N9          2.4053   -3.6964  -23.1343 N.pl3     1 <1>        -0.2598 
     10 C10         3.4939   -4.0734  -22.5309 C.2       1 <1>         0.2394 
     11 N11         3.5083   -4.7015  -21.4002 N.pl3     1 <1>        -0.1506 
     12 C12         2.3451   -5.1092  -20.6352 C.3       1 <1>         0.1198 
     13 C13         1.2073   -5.2928  -21.6748 C.3       1 <1>         0.0205 
     14 N14         4.6594   -3.8896  -22.9517 N.2       1 <1>        -0.2911 
     15 C15         5.6055   -4.4611  -22.0315 C.2       1 <1>         0.0377 
     16 N16         4.8236   -4.9388  -21.1332 N.2       1 <1>        -0.2088 
     17 C17         1.9279   -4.1053  -19.5431 C.ar      1 <1>         0.0207 
     18 C18         0.9035   -4.4785  -18.6635 C.ar      1 <1>        -0.0658 
     19 C19         0.4337   -3.5914  -17.6918 C.ar      1 <1>        -0.0796 
     20 C20         1.0185   -2.3303  -17.5626 C.ar      1 <1>        -0.0776 
     21 C21         2.0792   -1.9718  -18.3980 C.ar      1 <1>        -0.0395 
     22 C22         2.5274   -2.8459  -19.3947 C.ar      1 <1>         0.0953 
     23 O23         3.5817   -2.4680  -20.2277 O.3       1 <1>        -0.3249 
     24 C24         3.4350   -1.2768  -21.0178 C.3       1 <1>         0.0578 
     25 H1         -3.1740   -3.4958  -24.4596 H         1 <1>         0.0606 
     26 H2         -0.2997   -5.7968  -26.6714 H         1 <1>         0.0606 
     27 H3          1.3715   -5.4416  -24.8797 H         1 <1>         0.0558 
     28 H4         -1.5127   -3.1316  -22.6638 H         1 <1>         0.0558 
     29 H5          0.8042   -3.1665  -21.9217 H         1 <1>         0.0727 
     30 H6          2.4730   -3.2052  -24.0379 H         1 <1>         0.1909 
     31 H7          2.5825   -6.0684  -20.1469 H         1 <1>         0.0805 
     32 H8          0.2404   -5.5119  -21.1957 H         1 <1>         0.0360 
     33 H9          1.4673   -6.1443  -22.3245 H         1 <1>         0.0360 
     34 H10         6.6930   -4.4857  -22.0826 H         1 <1>         0.0805 
     35 H11         0.4616   -5.4679  -18.7270 H         1 <1>         0.0527 
     36 H12        -0.3825   -3.8816  -17.0369 H         1 <1>         0.0505 
     37 H13         0.6533   -1.6339  -16.8137 H         1 <1>         0.0531 
     38 H14         2.5579   -1.0092  -18.2598 H         1 <1>         0.0521 
     39 H15         3.3964   -0.3695  -20.3984 H         1 <1>         0.0574 
     40 H16         2.5318   -1.3280  -21.6429 H         1 <1>         0.0574 
     41 H17         4.3134   -1.2084  -21.6765 H         1 <1>         0.0574 
@<TRIPOS>BOND
     1    2    1 ar   
     2    2    3 ar   
     3    3    4 ar   
     4    4    5 ar   
     5    5    6 ar   
     6    1    6 ar   
     7    2    7 1    
     8    5    8 1    
     9    8    9 1    
    10    9   10 1    
    11   10   11 1    
    12   11   12 1    
    13   12   13 1    
    14    8   13 1    
    15   10   14 2    
    16   14   15 1    
    17   15   16 2    
    18   11   16 1    
    19   12   17 1    
    20   17   18 ar   
    21   18   19 ar   
    22   19   20 ar   
    23   20   21 ar   
    24   21   22 ar   
    25   17   22 ar   
    26   22   23 1    
    27   23   24 1    
    28    1   25 1    
    29    3   26 1    
    30    4   27 1    
    31    6   28 1    
    32    8   29 1    
    33    9   30 1    
    34   12   31 1    
    35   13   32 1    
    36   13   33 1    
    37   15   34 1    
    38   18   35 1    
    39   19   36 1    
    40   20   37 1    
    41   21   38 1    
    42   24   39 1    
    43   24   40 1    
    44   24   41 1    
@<TRIPOS>SUBSTRUCTURE
     1 ****        2 TEMP              0 ****  ****    0 ROOT 
@<TRIPOS>NORMAL
@<TRIPOS>FF_PBC
FORCE_FIELD_SETUP_FEATURE Force Field Setup information
v1.0  0 0.000000 0.000000 0.000000 0.000000 0.000000 0.000000 NONE 0 0 0 0 1 0 0 0 0 0 0 0 0
