#	Name:			PISM01112
#	Creating user name:	14062
#	Creation time:		Sat Apr 06 21:28:43 2019

#	Modifying user name:	14062
#	Modification time:	Sat Apr 06 21:30:38 2019

@<TRIPOS>MOLECULE
PISM01112
   43    45     1     1     0
SMALL
GAST_HUCK


@<TRIPOS>ATOM
      1 C1        -10.2697    8.4520   -3.2383 C.3       1 BENZYL      0.0433 
      2 C2        -10.1798    8.0528   -1.7384 C.3       1 BENZYL     -0.0320 
      3 C3        -10.2940    9.4207   -0.9883 C.3       1 BENZYL     -0.0357 
      4 C4        -10.4396   10.4562   -2.1401 C.3       1 BENZYL      0.0233 
      5 C5         -9.0878   10.4576   -2.7957 C.2       1 BENZYL      0.1098 
      6 C6         -8.9796    9.1782   -3.4878 C.2       1 BENZYL      0.1535 
      7 C7        -11.2344    9.6746   -3.2279 C.3       1 BENZYL     -0.0027 
      8 C8        -11.3042   10.4220   -4.6003 C.3       1 BENZYL     -0.0554 
      9 C9        -12.6995    9.3259   -2.8175 C.3       1 BENZYL     -0.0554 
     10 O10        -8.0207    8.7998   -4.1426 O.2       1 BENZYL     -0.3755 
     11 N11        -8.2114   11.3795   -2.7665 N.2       1 BENZYL     -0.1779 
     12 N12        -7.0319   11.2441   -3.4211 N.pl3     1 BENZYL     -0.1754 
     13 C13        -6.3066   12.2925   -3.7111 C.2       1 BENZYL      0.1931 
     14 N14        -5.1760   12.1753   -4.3627 N.pl3     1 BENZYL     -0.2368 
     15 C2         -4.4232   13.2473   -4.7073 C.ar      1 BENZYL      0.0604 
     16 C3         -4.1368   13.4708   -6.0572 C.ar      1 BENZYL     -0.0445 
     17 C4         -3.3807   14.5802   -6.4446 C.ar      1 BENZYL     -0.0697 
     18 C5         -2.9050   15.4793   -5.4847 C.ar      1 BENZYL     -0.0571 
     19 C6         -3.1751   15.2452   -4.1315 C.ar      1 BENZYL     -0.0697 
     20 C7         -3.9172   14.1254   -3.7430 C.ar      1 BENZYL     -0.0445 
     21 S21        -6.8942   13.8363   -3.2319 S.2       1 BENZYL     -0.2537 
     22 C22        -2.0986   16.7012   -5.9399 C.3       1 BENZYL     -0.0364 
     23 H1        -10.5006    7.6544   -3.9615 H         1 BENZYL      0.0527 
     24 H2         -9.2285    7.5379   -1.5227 H         1 BENZYL      0.0293 
     25 H3        -10.9965    7.3647   -1.4703 H         1 BENZYL      0.0293 
     26 H4         -9.4016    9.6346   -0.3755 H         1 BENZYL      0.0293 
     27 H5        -11.1687    9.4510   -0.3187 H         1 BENZYL      0.0293 
     28 H6        -10.8301   11.4507   -1.8743 H         1 BENZYL      0.0490 
     29 H7        -11.7845    9.7755   -5.3506 H         1 BENZYL      0.0238 
     30 H8        -10.3281   10.7229   -5.0077 H         1 BENZYL      0.0238 
     31 H9        -11.9079   11.3363   -4.4934 H         1 BENZYL      0.0238 
     32 H10       -13.2895   10.2520   -2.7422 H         1 BENZYL      0.0238 
     33 H11       -12.8027    8.8000   -1.8613 H         1 BENZYL      0.0238 
     34 H12       -13.1538    8.6866   -3.5897 H         1 BENZYL      0.0238 
     35 H13        -6.7214   10.2996   -3.7139 H         1 BENZYL      0.2390 
     36 H14        -4.8526   11.2467   -4.6695 H         1 BENZYL      0.2176 
     37 H15        -4.5067   12.7808   -6.8091 H         1 BENZYL      0.0519 
     38 H16        -3.1658   14.7421   -7.4965 H         1 BENZYL      0.0529 
     39 H17        -2.8101   15.9300   -3.3734 H         1 BENZYL      0.0529 
     40 H18        -4.0948   13.9379   -2.6895 H         1 BENZYL      0.0519 
     41 H19        -2.7437   17.3461   -6.5554 H         1 BENZYL      0.0369 
     42 H20        -1.2416   16.3680   -6.5448 H         1 BENZYL      0.0369 
     43 H21        -1.7221   17.2875   -5.0885 H         1 BENZYL      0.0369 
@<TRIPOS>BOND
     1    1    2 1    
     2    3    2 1    
     3    4    3 1    
     4    5    4 1    
     5    5    6 1    
     6    6    1 1    
     7    1    7 1    
     8    4    7 1    
     9    7    8 1    
    10    7    9 1    
    11    6   10 2    
    12   11    5 2    
    13   12   11 1    
    14   13   12 1    
    15   14   15 1    
    16   15   16 ar   
    17   15   20 ar   
    18   20   19 ar   
    19   19   18 ar   
    20   17   18 ar   
    21   16   17 ar   
    22   14   13 1    
    23   13   21 2    
    24   18   22 1    
    25    1   23 1    
    26    2   24 1    
    27    2   25 1    
    28    3   26 1    
    29    3   27 1    
    30    4   28 1    
    31    8   29 1    
    32    8   30 1    
    33    8   31 1    
    34    9   32 1    
    35    9   33 1    
    36    9   34 1    
    37   12   35 1    
    38   14   36 1    
    39   16   37 1    
    40   17   38 1    
    41   19   39 1    
    42   20   40 1    
    43   22   41 1    
    44   22   42 1    
    45   22   43 1    
@<TRIPOS>SUBSTRUCTURE
     1 BENZYL     14 PERM              0 ****  ****    0 ROOT 
@<TRIPOS>NORMAL
@<TRIPOS>FF_PBC
FORCE_FIELD_SETUP_FEATURE Force Field Setup information
v1.0  0 0.000000 0.000000 0.000000 0.000000 0.000000 0.000000 NONE 0 0 0 0 1 0 0 0 0 0 0 0 0
