#	Name:			PISM00865.1
#	Creating user name:	baoopengkun
#	Creation time:		Thu Dec 13 23:15:37 2018

#	Modifying user name:	baoopengkun
#	Modification time:	Thu Dec 13 23:28:23 2018

@<TRIPOS>MOLECULE
PISM00865.1
   26    27     1     1     0
SMALL
GAST_HUCK


@<TRIPOS>ATOM
      1 N1          0.7366    1.1739    1.5992 N.pl3     1 <1>         0.1190 
      2 C2          2.9935    0.3768    1.5276 C.ar      1 <1>        -0.0425 
      3 C3          4.3034    0.4856    1.0527 C.ar      1 <1>        -0.0821 
      4 C4          4.6385    1.5044    0.1586 C.ar      1 <1>        -0.0747 
      5 C5          3.6547    2.3963   -0.2737 C.ar      1 <1>         0.0300 
      6 C6          2.3365    2.2647    0.1751 C.ar      1 <1>         0.1333 
      7 C7          1.9996    1.2722    1.1077 C.ar      1 <1>         0.1633 
      8 Br8         4.1018    3.7563   -1.4511 Br        1 <1>        -0.0621 
      9 O9          1.3639    3.1325   -0.3238 O.3       1 <1>        -0.2743 
     10 C10         0.5636    2.6038   -1.3926 C.3       1 <1>         0.2340 
     11 O11        -0.2867    3.6712   -1.8551 O.3       1 <1>        -0.2316 
     12 C12         0.1176    3.9310   -3.0924 C.2       1 <1>         0.2494 
     13 C13         1.1792    3.0692   -3.5996 C.2       1 <1>         0.0291 
     14 C14         1.4297    2.2517   -2.5795 C.2       1 <1>        -0.0022 
     15 C15         1.8267    3.0862   -4.9569 C.3       1 <1>        -0.0323 
     16 O16        -0.3770    4.8235   -3.7593 O.2       1 <1>        -0.3691 
     17 H1          2.7609   -0.4138    2.2341 H         1 <1>         0.0505 
     18 H2          5.0619   -0.2196    1.3800 H         1 <1>         0.0496 
     19 H3          5.6589    1.6020   -0.1988 H         1 <1>         0.0501 
     20 H4         -0.0539    1.7488   -1.0719 H         1 <1>         0.1195 
     21 H5          2.1649    1.4481   -2.5978 H         1 <1>         0.0705 
     22 H6          1.9062    2.0620   -5.3509 H         1 <1>         0.0347 
     23 H7          2.8339    3.5211   -4.8749 H         1 <1>         0.0347 
     24 H8          1.2306    3.6920   -5.6559 H         1 <1>         0.0347 
     25 O25         0.0285    2.1556    1.5664 O.2       1 <1>        -0.1158 
     26 O26         0.3862    0.1075    2.0558 O.2       1 <1>        -0.1158 
@<TRIPOS>BOND
     1    7    1 1    
     2    3    2 ar   
     3    4    3 ar   
     4    5    4 ar   
     5    6    5 ar   
     6    6    7 ar   
     7    2    7 ar   
     8    5    8 1    
     9    6    9 1    
    10    9   10 1    
    11   10   11 1    
    12   11   12 1    
    13   12   13 1    
    14   13   14 2    
    15   10   14 1    
    16   13   15 1    
    17   12   16 2    
    18    2   17 1    
    19    3   18 1    
    20    4   19 1    
    21   10   20 1    
    22   14   21 1    
    23   15   22 1    
    24   15   23 1    
    25   15   24 1    
    26    1   25 2    
    27    1   26 2    
@<TRIPOS>SUBSTRUCTURE
     1 ****        2 TEMP              0 ****  ****    0 ROOT 
@<TRIPOS>NORMAL
@<TRIPOS>FF_PBC
FORCE_FIELD_SETUP_FEATURE Force Field Setup information
v1.0  0 0.000000 0.000000 0.000000 0.000000 0.000000 0.000000 NONE 0 0 0 0 1 0 0 0 0 0 0 0 0
