#	Name:			PISM00283
#	Creating user name:	14062
#	Creation time:		Fri Jul 12 14:25:25 2019

#	Modifying user name:	14062
#	Modification time:	Fri Jul 12 14:30:54 2019

@<TRIPOS>MOLECULE
PISM00283
   57    58     2     1     0
SMALL
GAST_HUCK


@<TRIPOS>ATOM
      1 C1         -0.7009   -3.9092  -14.1318 C.2       1 BENZYL     -0.0657 
      2 C1          0.0025   -2.8303  -13.7608 C.2       1 BENZYL     -0.0763 
      3 C2          1.5129   -2.8166  -13.6380 C.ar      1 BENZYL     -0.0595 
      4 C3          2.3355   -3.6575  -14.3982 C.ar      1 BENZYL     -0.0403 
      5 C4          3.7211   -3.6559  -14.2170 C.ar      1 BENZYL      0.1167 
      6 C5          4.3011   -2.7965  -13.2762 C.ar      1 BENZYL      0.1176 
      7 C6          3.4916   -1.9154  -12.5563 C.ar      1 BENZYL     -0.0432 
      8 C7          2.1057   -1.9251  -12.7370 C.ar      1 BENZYL     -0.0795 
      9 C9         -2.2051   -3.9004  -14.2666 C.3       1 BENZYL      0.0326 
     10 N10        -2.6020   -3.8970  -15.6977 N.3       1 BENZYL     -0.2603 
     11 C1         -2.2640   -5.1250  -16.4624 C.3       2 BENZYL      0.0358 
     12 C2         -2.7679   -6.3825  -15.7435 C.ar      2 BENZYL     -0.0324 
     13 C3         -4.1329   -6.5004  -15.4598 C.ar      2 BENZYL     -0.0608 
     14 C4         -4.6195   -7.6271  -14.7908 C.ar      2 BENZYL     -0.0349 
     15 C5         -3.7416   -8.6426  -14.4047 C.ar      2 BENZYL      0.1248 
     16 C6         -2.3793   -8.5331  -14.6932 C.ar      2 BENZYL     -0.0349 
     17 C7         -1.8923   -7.4062  -15.3624 C.ar      2 BENZYL     -0.0608 
     18 C18        -2.2464   -2.6408  -16.4100 C.3       1 BENZYL      0.1046 
     19 C19        -2.9334   -2.5405  -17.7461 C.2       1 BENZYL      0.2485 
     20 O20        -2.3116   -2.6429  -18.7924 O.2       1 BENZYL     -0.3690 
     21 O21        -4.2585   -2.3459  -17.6921 O.3       1 BENZYL     -0.2759 
     22 C22        -4.8886   -2.2825  -18.9870 C.3       1 BENZYL      0.0766 
     23 C23        -6.4057   -2.0558  -18.7693 C.3       1 BENZYL     -0.0278 
     24 C24        -7.1731   -1.9774  -20.1148 C.3       1 BENZYL     -0.0629 
     25 F25        -4.2027   -9.7131  -13.7626 F         2 BENZYL     -0.1893 
     26 O26         4.5130   -4.5159  -14.9828 O.3       1 BENZYL     -0.3256 
     27 C27         5.2827   -3.8593  -16.0033 C.3       1 BENZYL      0.0568 
     28 O28         5.6798   -2.8060  -13.0479 O.3       1 BENZYL     -0.3259 
     29 C29         6.1542   -3.9651  -12.3432 C.3       1 BENZYL      0.0567 
     30 H1         -0.2004   -4.8515  -14.3481 H         1 BENZYL      0.0691 
     31 H2         -0.5226   -1.9047  -13.5241 H         1 BENZYL      0.0412 
     32 H3          1.9187   -4.3172  -15.1493 H         1 BENZYL      0.0473 
     33 H4          3.9461   -1.2256  -11.8530 H         1 BENZYL      0.0508 
     34 H5          1.4901   -1.2365  -12.1667 H         1 BENZYL      0.0472 
     35 H6         -2.6475   -3.0225  -13.7698 H         1 BENZYL      0.0619 
     36 H7         -2.6132   -4.7784  -13.7428 H         1 BENZYL      0.0619 
     37 H8         -2.7684   -5.1172  -17.4410 H         2 BENZYL      0.0585 
     38 H9         -1.1797   -5.1750  -16.6477 H         2 BENZYL      0.0585 
     39 H10        -4.8175   -5.7122  -15.7582 H         2 BENZYL      0.0548 
     40 H11        -5.6775   -7.7183  -14.5682 H         2 BENZYL      0.0587 
     41 H12        -1.7031   -9.3274  -14.3946 H         2 BENZYL      0.0587 
     42 H13        -0.8317   -7.3339  -15.5815 H         2 BENZYL      0.0548 
     43 H14        -1.1568   -2.5774  -16.5578 H         1 BENZYL      0.0688 
     44 H15        -2.5643   -1.7599  -15.8323 H         1 BENZYL      0.0688 
     45 H16        -4.7347   -3.2267  -19.5369 H         1 BENZYL      0.0613 
     46 H17        -4.4749   -1.4489  -19.5798 H         1 BENZYL      0.0613 
     47 H18        -6.5507   -1.1180  -18.2075 H         1 BENZYL      0.0288 
     48 H19        -6.8080   -2.8847  -18.1634 H         1 BENZYL      0.0288 
     49 H20        -6.7950   -1.1427  -20.7256 H         1 BENZYL      0.0231 
     50 H21        -8.2468   -1.8165  -19.9280 H         1 BENZYL      0.0231 
     51 H22        -7.0528   -2.9139  -20.6815 H         1 BENZYL      0.0231 
     52 H23         5.8511   -4.6263  -16.5495 H         1 BENZYL      0.0573 
     53 H24         5.9933   -3.1363  -15.5743 H         1 BENZYL      0.0573 
     54 H25         4.6190   -3.3396  -16.7120 H         1 BENZYL      0.0573 
     55 H26         5.6695   -4.0418  -11.3574 H         1 BENZYL      0.0573 
     56 H27         7.2386   -3.8567  -12.1954 H         1 BENZYL      0.0573 
     57 H28         5.9695   -4.8897  -12.9112 H         1 BENZYL      0.0573 
@<TRIPOS>BOND
     1    2    3 1    
     2    3    4 ar   
     3    3    8 ar   
     4    8    7 ar   
     5    7    6 ar   
     6    6    5 ar   
     7    5    4 ar   
     8    2    1 2    
     9    1    9 1    
    10    9   10 1    
    11   11   12 1    
    12   12   13 ar   
    13   12   17 ar   
    14   17   16 ar   
    15   16   15 ar   
    16   15   14 ar   
    17   14   13 ar   
    18   10   11 1    
    19   10   18 1    
    20   18   19 1    
    21   19   20 2    
    22   19   21 1    
    23   21   22 1    
    24   22   23 1    
    25   23   24 1    
    26   15   25 1    
    27    5   26 1    
    28   26   27 1    
    29    6   28 1    
    30   28   29 1    
    31    1   30 1    
    32    2   31 1    
    33    4   32 1    
    34    7   33 1    
    35    8   34 1    
    36    9   35 1    
    37    9   36 1    
    38   11   37 1    
    39   11   38 1    
    40   13   39 1    
    41   14   40 1    
    42   16   41 1    
    43   17   42 1    
    44   18   43 1    
    45   18   44 1    
    46   22   45 1    
    47   22   46 1    
    48   23   47 1    
    49   23   48 1    
    50   24   49 1    
    51   24   50 1    
    52   24   51 1    
    53   27   52 1    
    54   27   53 1    
    55   27   54 1    
    56   29   55 1    
    57   29   56 1    
    58   29   57 1    
@<TRIPOS>SUBSTRUCTURE
     1 BENZYL      2 PERM              0 ****  ****    1 ROOT 
     2 BENZYL     11 PERM              0 ****  ****    1  
@<TRIPOS>NORMAL
@<TRIPOS>FF_PBC
FORCE_FIELD_SETUP_FEATURE Force Field Setup information
v1.0  0 0.000000 0.000000 0.000000 0.000000 0.000000 0.000000 NONE 0 0 0 0 1 0 0 0 0 0 0 0 0
