#	Name:			PISM00960.1
#	Creating user name:	baoopengkun
#	Creation time:		Thu Dec 13 10:35:31 2018

#	Modifying user name:	baoopengkun
#	Modification time:	Thu Dec 13 10:54:31 2018

@<TRIPOS>MOLECULE
PISM00960.1
   52    55     1     1     0
SMALL
GAST_HUCK


@<TRIPOS>ATOM
      1 C1         -7.4804   10.5385   -7.8512 C.ar      1 <1>         0.0056 
      2 C2         -6.7037   11.6997   -7.8904 C.ar      1 <1>         0.1538 
      3 C3         -7.0684   12.7963   -7.1079 C.ar      1 <1>         0.0056 
      4 C4         -8.2366   12.7550   -6.3415 C.ar      1 <1>        -0.0437 
      5 C5         -9.0737   11.6317   -6.3711 C.ar      1 <1>        -0.0355 
      6 C6         -8.6507   10.5039   -7.0877 C.ar      1 <1>        -0.0437 
      7 C7        -10.4253   11.6420   -5.6200 C.3       1 <1>         0.0735 
      8 O8        -10.7968   12.9856   -5.2575 O.3       1 <1>        -0.4309 
      9 C9        -11.5872   11.0047   -6.4452 C.3       1 <1>        -0.0430 
     10 C10       -10.2217   10.8695   -4.2871 C.3       1 <1>         0.0751 
     11 N11       -11.4490   10.7694   -3.5086 N.pl3     1 <1>        -0.1857 
     12 N12       -11.8812   11.6455   -2.5585 N.2       1 <1>        -0.1910 
     13 C13       -12.9766   11.2859   -1.9999 C.2       1 <1>         0.0618 
     14 N14       -13.2296   10.0451   -2.6788 N.2       1 <1>        -0.2870 
     15 C15       -12.3235    9.8096   -3.5143 C.2       1 <1>         0.1267 
     16 C16       -11.7250   11.5569   -7.8910 C.3       1 <1>        -0.0256 
     17 C17       -12.7941   10.7470   -8.6387 C.ar      1 <1>        -0.0436 
     18 C18       -12.4324    9.6188   -9.3842 C.ar      1 <1>        -0.0597 
     19 C19       -13.4032    8.8905  -10.0782 C.ar      1 <1>        -0.0546 
     20 C20       -14.7431    9.2829  -10.0251 C.ar      1 <1>         0.0330 
     21 C21       -15.1110   10.4007   -9.2719 C.ar      1 <1>        -0.0546 
     22 C22       -14.1393   11.1282   -8.5784 C.ar      1 <1>        -0.0597 
     23 Cl23      -15.9591    8.3752  -10.9006 Cl        1 <1>        -0.0771 
     24 O24        -5.5694   11.7729   -8.6997 O.3       1 <1>        -0.2326 
     25 C25        -5.7445   11.3310  -10.0129 C.ar      1 <1>         0.1283 
     26 C26        -4.7753   10.5123  -10.5983 C.ar      1 <1>        -0.0251 
     27 C27        -4.9454   10.0433  -11.9042 C.ar      1 <1>        -0.0680 
     28 C28        -6.0869   10.3976  -12.6291 C.ar      1 <1>        -0.0708 
     29 C29        -7.0523   11.2270  -12.0510 C.ar      1 <1>        -0.0680 
     30 C30        -6.8768   11.7012  -10.7476 C.ar      1 <1>        -0.0251 
     31 H1         -7.1738    9.6620   -8.4133 H         1 <1>         0.0659 
     32 H2         -6.4394   13.6806   -7.1013 H         1 <1>         0.0659 
     33 H3         -8.4813   13.6100   -5.7196 H         1 <1>         0.0821 
     34 H4         -9.2222    9.5834   -7.0621 H         1 <1>         0.0821 
     35 H5        -10.9514   13.5580   -5.9996 H         1 <1>         0.1927 
     36 H6        -12.5362   11.1934   -5.9178 H         1 <1>         0.0195 
     37 H7        -11.4584    9.9133   -6.5002 H         1 <1>         0.0195 
     38 H8         -9.4804   11.4089   -3.6773 H         1 <1>         0.0547 
     39 H9         -9.8313    9.8588   -4.4820 H         1 <1>         0.0547 
     40 H10       -13.5535   11.7846   -1.2227 H         1 <1>         0.0863 
     41 H11       -12.2946    8.9197   -4.1415 H         1 <1>         0.1361 
     42 H12       -10.7738   11.4837   -8.4387 H         1 <1>         0.0418 
     43 H13       -12.0192   12.6172   -7.8861 H         1 <1>         0.0418 
     44 H14       -11.3953    9.3015   -9.4265 H         1 <1>         0.0557 
     45 H15       -13.1188    8.0191  -10.6591 H         1 <1>         0.0606 
     46 H16       -16.1525   10.7021   -9.2266 H         1 <1>         0.0606 
     47 H17       -14.4356   11.9910   -7.9902 H         1 <1>         0.0557 
     48 H18        -3.8903   10.2414  -10.0321 H         1 <1>         0.0566 
     49 H19        -4.1919    9.4043  -12.3550 H         1 <1>         0.0594 
     50 H20        -6.2234   10.0294  -13.6416 H         1 <1>         0.0540 
     51 H21        -7.9380   11.5039  -12.6150 H         1 <1>         0.0594 
     52 H22        -7.6212   12.3589  -10.3109 H         1 <1>         0.0566 
@<TRIPOS>BOND
     1    2    1 ar   
     2    2    3 ar   
     3    3    4 ar   
     4    4    5 ar   
     5    5    6 ar   
     6    1    6 ar   
     7    5    7 1    
     8    7    8 1    
     9    7    9 1    
    10    7   10 1    
    11   10   11 1    
    12   11   12 1    
    13   12   13 2    
    14   13   14 1    
    15   14   15 2    
    16   11   15 1    
    17    9   16 1    
    18   16   17 1    
    19   17   18 ar   
    20   18   19 ar   
    21   19   20 ar   
    22   20   21 ar   
    23   21   22 ar   
    24   17   22 ar   
    25   20   23 1    
    26    2   24 1    
    27   24   25 1    
    28   25   26 ar   
    29   26   27 ar   
    30   27   28 ar   
    31   28   29 ar   
    32   29   30 ar   
    33   25   30 ar   
    34    1   31 1    
    35    3   32 1    
    36    4   33 1    
    37    6   34 1    
    38    8   35 1    
    39    9   36 1    
    40    9   37 1    
    41   10   38 1    
    42   10   39 1    
    43   13   40 1    
    44   15   41 1    
    45   16   42 1    
    46   16   43 1    
    47   18   44 1    
    48   19   45 1    
    49   21   46 1    
    50   22   47 1    
    51   26   48 1    
    52   27   49 1    
    53   28   50 1    
    54   29   51 1    
    55   30   52 1    
@<TRIPOS>SUBSTRUCTURE
     1 ****        2 TEMP              0 ****  ****    0 ROOT 
@<TRIPOS>NORMAL
@<TRIPOS>FF_PBC
FORCE_FIELD_SETUP_FEATURE Force Field Setup information
v1.0  0 0.000000 0.000000 0.000000 0.000000 0.000000 0.000000 NONE 0 0 0 0 1 0 0 0 0 0 0 0 0
