#	Name:			PISM00839
#	Creating user name:	baoopengkun
#	Creation time:		Thu Dec 13 14:40:19 2018

#	Modifying user name:	baoopengkun
#	Modification time:	Thu Dec 13 14:46:48 2018

@<TRIPOS>MOLECULE
PISM00839
   24    25     1     1     0
SMALL
GAST_HUCK


@<TRIPOS>ATOM
      1 C1         -6.4370   21.1944   -7.5613 C.ar      1 <1>        -0.0298 
      2 C2         -5.9392   22.3106   -6.8825 C.ar      1 <1>        -0.0611 
      3 C3         -6.2722   22.5184   -5.5406 C.ar      1 <1>         0.0012 
      4 C4         -7.1059   21.6117   -4.8791 C.ar      1 <1>        -0.0611 
      5 C5         -7.6048   20.4968   -5.5592 C.ar      1 <1>        -0.0298 
      6 C6         -7.2656   20.2853   -6.8981 C.ar      1 <1>         0.1011 
      7 Br7        -5.6092   23.9949   -4.6392 Br        1 <1>        -0.0600 
      8 O8         -7.7545   19.1682   -7.5718 O.3       1 <1>        -0.2687 
      9 C9         -6.8610   18.0496   -7.5092 C.3       1 <1>         0.2363 
     10 C10        -7.4284   16.9486   -8.3706 C.2       1 <1>        -0.0018 
     11 C11        -6.6115   16.6837   -9.3882 C.2       1 <1>         0.0292 
     12 C12        -5.5031   17.6100   -9.1859 C.2       1 <1>         0.2495 
     13 O13        -5.5971   18.3885   -8.1156 O.3       1 <1>        -0.2312 
     14 C14        -6.7903   15.6791  -10.4936 C.3       1 <1>        -0.0323 
     15 O15        -4.5481   17.6656   -9.9413 O.2       1 <1>        -0.3691 
     16 H1         -6.1824   21.0291   -8.6031 H         1 <1>         0.0549 
     17 H2         -5.2943   23.0154   -7.3975 H         1 <1>         0.0615 
     18 H3         -7.3659   21.7738   -3.8379 H         1 <1>         0.0615 
     19 H4         -8.2558   19.7928   -5.0516 H         1 <1>         0.0549 
     20 H5         -6.7110   17.7020   -6.4734 H         1 <1>         0.1200 
     21 H6         -8.3784   16.4494   -8.1843 H         1 <1>         0.0705 
     22 H7         -6.2115   15.9856  -11.3778 H         1 <1>         0.0347 
     23 H8         -7.8518   15.6011  -10.7730 H         1 <1>         0.0347 
     24 H9         -6.4328   14.6955  -10.1549 H         1 <1>         0.0347 
@<TRIPOS>BOND
     1    2    1 ar   
     2    2    3 ar   
     3    3    4 ar   
     4    4    5 ar   
     5    5    6 ar   
     6    1    6 ar   
     7    3    7 1    
     8    6    8 1    
     9    8    9 1    
    10    9   10 1    
    11   10   11 2    
    12   11   12 1    
    13   12   13 1    
    14    9   13 1    
    15   11   14 1    
    16   12   15 2    
    17    1   16 1    
    18    2   17 1    
    19    4   18 1    
    20    5   19 1    
    21    9   20 1    
    22   10   21 1    
    23   14   22 1    
    24   14   23 1    
    25   14   24 1    
@<TRIPOS>SUBSTRUCTURE
     1 ****        2 TEMP              0 ****  ****    0 ROOT 
@<TRIPOS>NORMAL
@<TRIPOS>FF_PBC
FORCE_FIELD_SETUP_FEATURE Force Field Setup information
v1.0  0 0.000000 0.000000 0.000000 0.000000 0.000000 0.000000 NONE 0 0 0 0 1 0 0 0 0 0 0 0 0
