#	Name:			PISM01180
#	Creating user name:	malab
#	Creation time:		Thu Apr 11 01:10:10 2019

#	Modifying user name:	malab
#	Modification time:	Thu Apr 11 01:11:06 2019

@<TRIPOS>MOLECULE
PISM01180
   50    53     1     2     0
SMALL
GAST_HUCK


@<TRIPOS>ATOM
      1 C1         -4.9364   36.8272   -8.6876 C.3       1 <1>         0.0592 
      2 O2         -3.8189   36.1567   -8.0834 O.3       1 <1>        -0.3219 
      3 C3         -2.5994   36.8105   -7.8512 C.ar      1 <1>         0.0904 
      4 C4         -2.3850   38.1441   -8.2201 C.ar      1 <1>        -0.0293 
      5 C5         -1.1474   38.7379   -7.9661 C.ar      1 <1>        -0.0592 
      6 C6         -0.1270   38.0125   -7.3469 C.ar      1 <1>        -0.0310 
      7 C7         -0.3246   36.6823   -6.9507 C.ar      1 <1>        -0.0202 
      8 C8         -1.5696   36.0968   -7.2296 C.ar      1 <1>        -0.0296 
      9 C9          0.7287   36.0107   -6.3038 C.ar      1 <1>        -0.0085 
     10 C10         1.9518   36.6769   -6.1529 C.ar      1 <1>        -0.0623 
     11 C11         2.0921   37.9982   -6.5804 C.ar      1 <1>        -0.0742 
     12 N12         1.0508   38.6361   -7.1460 N.ar      1 <1>        -0.0674 
     13 C13         0.5953   34.5734   -5.7527 C.3       1 <1>         0.1050 
     14 C14         0.7713   33.5416   -6.9071 C.3       1 <1>         0.0468 
     15 C15         1.8864   29.4855   -8.2342 C.3       1 <1>         0.0000 
     16 C16         2.2524   33.3280   -7.3412 C.3       1 <1>        -0.0298 
     17 N17         0.1616   32.2217   -6.5931 N.3       1 <1>        -0.2948 
     18 O18         1.5425   34.3198   -4.6984 O.3       1 <1>        -0.3774 
     19 C19         3.3373   29.0911   -8.6188 C.3       1 <1>         0.0000 
     20 C20         0.1684   31.3512   -7.7975 C.3       1 <1>        -0.0003 
     21 C21         1.6429   31.0258   -8.1946 C.3       1 <1>        -0.0370 
     22 C22         2.5858   31.8127   -7.2324 C.3       1 <1>        -0.0342 
     23 C23         2.3408   31.3808   -5.7608 C.3       1 <1>        -0.0256 
     24 C24         0.8208   31.5196   -5.4627 C.3       1 <1>         0.0025 
     25 H1         -5.7684   36.1099   -8.7456 H         1 <1>         0.0000 
     26 H2         -4.6903   37.1577   -9.7086 H         1 <1>         0.0000 
     27 H3         -5.2575   37.6840   -8.0750 H         1 <1>         0.0000 
     28 H4         -3.1528   38.7370   -8.7024 H         1 <1>         0.0000 
     29 H5         -0.9763   39.7712   -8.2527 H         1 <1>         0.0000 
     30 H6         -1.7839   35.0666   -6.9784 H         1 <1>         0.0000 
     31 H7          2.8080   36.1850   -5.7049 H         1 <1>         0.0000 
     32 H8          3.0363   38.5189   -6.4598 H         1 <1>         0.0000 
     33 H9         -0.4001   34.4402   -5.2993 H         1 <1>         0.0000 
     34 H10         0.2135   33.9510   -7.7661 H         1 <1>         0.0000 
     35 H11         1.2085   29.0570   -8.9923 H         1 <1>         0.0000 
     36 H12         1.6321   29.0223   -7.2680 H         1 <1>         0.0000 
     37 H13         2.9495   33.8995   -6.7098 H         1 <1>         0.0000 
     38 H14         2.4122   33.6687   -8.3781 H         1 <1>         0.0000 
     39 H15         1.4404   34.9074   -3.9559 H         1 <1>         0.0000 
     40 H16         3.4001   28.0013   -8.7663 H         1 <1>         0.0000 
     41 H17         4.0484   29.3624   -7.8248 H         1 <1>         0.0000 
     42 H18         3.6377   29.5873   -9.5549 H         1 <1>         0.0000 
     43 H19        -0.3587   31.8490   -8.6280 H         1 <1>         0.0000 
     44 H20        -0.4131   30.4403   -7.5836 H         1 <1>         0.0000 
     45 H21         1.8325   31.3987   -9.2172 H         1 <1>         0.0000 
     46 H22         3.6455   31.6720   -7.5039 H         1 <1>         0.0000 
     47 H23         2.9245   32.0325   -5.0900 H         1 <1>         0.0000 
     48 H24         2.6921   30.3515   -5.5859 H         1 <1>         0.0000 
     49 H25         0.6387   32.0499   -4.5160 H         1 <1>         0.0000 
     50 H26         0.3686   30.5219   -5.3370 H         1 <1>         0.0000 
@<TRIPOS>BOND
     1    2    1 1    
     2    3    2 1    
     3    3    4 ar   
     4    5    4 ar   
     5    6    5 ar   
     6    7    6 ar   
     7    7    8 ar   
     8    8    3 ar   
     9    9    7 ar   
    10    9   10 ar   
    11   10   11 ar   
    12   11   12 ar   
    13    6   12 ar   
    14   13    9 1    
    15   14   13 1    
    16   21   15 1    
    17   14   16 1    
    18   17   14 1    
    19   13   18 1    
    20   15   19 1    
    21   20   17 1    
    22   20   21 1    
    23   21   22 1    
    24   16   22 1    
    25   22   23 1    
    26   23   24 1    
    27   17   24 1    
    28    1   25 1    
    29    1   26 1    
    30    1   27 1    
    31    4   28 1    
    32    5   29 1    
    33    8   30 1    
    34   10   31 1    
    35   11   32 1    
    36   13   33 1    
    37   14   34 1    
    38   15   35 1    
    39   15   36 1    
    40   16   37 1    
    41   16   38 1    
    42   18   39 1    
    43   19   40 1    
    44   19   41 1    
    45   19   42 1    
    46   20   43 1    
    47   20   44 1    
    48   21   45 1    
    49   22   46 1    
    50   23   47 1    
    51   23   48 1    
    52   24   49 1    
    53   24   50 1    
@<TRIPOS>SUBSTRUCTURE
     1 ****        2 TEMP              0 ****  ****    0 ROOT 
@<TRIPOS>NORMAL
@<TRIPOS>FF_PBC
FORCE_FIELD_SETUP_FEATURE Force Field Setup information
v1.0  0 0.000000 0.000000 0.000000 0.000000 0.000000 0.000000 NONE 0 0 0 0 0 0 0 0 0 0 0 0 0
@<TRIPOS>RENDERING_ATTRS
ANTIALIASED_LINES 
*
