#	Name:			PISM00728
#	Creating user name:	baoopengkun
#	Creation time:		Sun Jan 20 21:58:07 2019

#	Modifying user name:	baoopengkun
#	Modification time:	Sun Jan 20 22:11:20 2019

@<TRIPOS>MOLECULE
PISM00728
   83    86     1     1     0
SMALL
GAST_HUCK


@<TRIPOS>ATOM
      1 C1         -4.8223    6.0217    0.8311 C.3       1 <1>        -0.0163 
      2 C2         -5.8759    4.9279    1.1721 C.3       1 <1>         0.0819 
      3 C3         -5.3374    3.9645    2.2639 C.3       1 <1>         0.0835 
      4 C4         -4.9335    4.7637    3.5328 C.3       1 <1>        -0.0028 
      5 C5         -3.8521    5.8134    3.1507 C.3       1 <1>         0.0681 
      6 C6         -4.3394    6.8422    2.0695 C.3       1 <1>        -0.0055 
      7 C7         -3.1681    7.8391    1.7014 C.3       1 <1>        -0.0276 
      8 C8         -1.7559    7.1702    1.7139 C.3       1 <1>        -0.0063 
      9 C9         -1.2442    6.9605    3.1818 C.3       1 <1>         0.0801 
     10 O10        -2.1500    7.2392    4.2755 O.3       1 <1>        -0.2763 
     11 C11        -3.3124    6.5659    4.3403 C.2       1 <1>         0.2374 
     12 O12        -3.9490    6.5879    5.3820 O.2       1 <1>        -0.3701 
     13 C13        -3.3657    8.6665    0.3937 C.3       1 <1>        -0.0487 
     14 C14        -2.3211    9.8274    0.2801 C.3       1 <1>        -0.0468 
     15 C15        -0.8653    9.4489    0.7265 C.3       1 <1>        -0.0257 
     16 C16        -0.7783    7.8991    0.7333 C.3       1 <1>        -0.0298 
     17 C17         0.7231    7.5333    0.7660 C.3       1 <1>        -0.0491 
     18 C18         1.3795    8.7182    0.0046 C.3       1 <1>        -0.0491 
     19 C19         0.2605    9.7620   -0.3200 C.3       1 <1>        -0.0304 
     20 O20        -6.1979    4.1572   -0.0030 O.3       1 <1>        -0.3892 
     21 O21        -4.1974    3.2554    1.7419 O.3       1 <1>        -0.3891 
     22 C22         5.2180   12.3392   -1.2042 C.3       1 <1>        -0.0156 
     23 C23        -5.5269    7.7010    2.6322 C.3       1 <1>        -0.0568 
     24 C24        -0.5097   10.0691    2.1164 C.3       1 <1>        -0.0590 
     25 C25         0.7946   11.2314   -0.4502 C.3       1 <1>        -0.0120 
     26 C26         1.9087   11.2938   -1.5541 C.3       1 <1>         0.0841 
     27 C27         2.6605   12.6568   -1.7142 C.3       1 <1>         0.0842 
     28 C28         4.1026   12.4426   -2.3138 C.3       1 <1>        -0.0107 
     29 C29         6.6409   12.0487   -1.7812 C.3       1 <1>         0.0471 
     30 O30         7.2722   13.2496   -2.2582 O.3       1 <1>        -0.3947 
     31 C31         4.9130   11.2659   -0.1150 C.3       1 <1>        -0.0600 
     32 C32        -0.3556   12.2436   -0.7310 C.3       1 <1>        -0.0597 
     33 O33         1.4070   10.8619   -2.8288 O.3       1 <1>        -0.3890 
     34 O34         1.8088   13.4756   -2.5422 O.3       1 <1>        -0.3890 
     35 C35         4.4772   13.5257   -3.3666 C.3       1 <1>        -0.0597 
     36 H1         -5.2713    6.6951    0.0855 H         1 <1>         0.0298 
     37 H2         -3.9677    5.5178    0.3571 H         1 <1>         0.0298 
     38 H3         -6.8168    5.3774    1.5300 H         1 <1>         0.0619 
     39 H4         -6.1355    3.2397    2.5054 H         1 <1>         0.0621 
     40 H5         -4.5172    4.0618    4.2754 H         1 <1>         0.0319 
     41 H6         -5.8143    5.2212    4.0032 H         1 <1>         0.0319 
     42 H7         -3.0450    5.1680    2.7883 H         1 <1>         0.0560 
     43 H8         -3.1512    8.6135    2.4803 H         1 <1>         0.0311 
     44 H9         -1.8293    6.1739    1.2467 H         1 <1>         0.0332 
     45 H10        -0.4450    7.6680    3.4166 H         1 <1>         0.0616 
     46 H11        -0.8061    5.9596    3.3145 H         1 <1>         0.0616 
     47 H12        -4.3626    9.1248    0.3373 H         1 <1>         0.0268 
     48 H13        -3.2898    7.9969   -0.4756 H         1 <1>         0.0268 
     49 H14        -2.6792   10.6735    0.8899 H         1 <1>         0.0271 
     50 H15        -2.3457   10.1604   -0.7689 H         1 <1>         0.0271 
     51 H16        -1.0639    7.5864   -0.2905 H         1 <1>         0.0310 
     52 H17         0.9216    6.5610    0.2815 H         1 <1>         0.0268 
     53 H18         1.1304    7.4723    1.7840 H         1 <1>         0.0268 
     54 H19         1.8577    8.3518   -0.9214 H         1 <1>         0.0268 
     55 H20         2.1657    9.1648    0.6366 H         1 <1>         0.0268 
     56 H21        -0.1336    9.4992   -1.3152 H         1 <1>         0.0310 
     57 H22        -6.5556    4.6767   -0.7146 H         1 <1>         0.2099 
     58 H23        -3.8508    2.5973    2.3383 H         1 <1>         0.2099 
     59 H24         5.2666   13.3119   -0.6795 H         1 <1>         0.0324 
     60 H25        -5.8875    8.4215    1.8861 H         1 <1>         0.0237 
     61 H26        -5.2172    8.2723    3.5210 H         1 <1>         0.0237 
     62 H27        -6.4060    7.1228    2.9341 H         1 <1>         0.0237 
     63 H28         0.4743    9.7416    2.4739 H         1 <1>         0.0235 
     64 H29        -1.2511    9.8194    2.8835 H         1 <1>         0.0235 
     65 H30        -0.4879   11.1641    2.0790 H         1 <1>         0.0235 
     66 H31         1.2762   11.5217    0.4991 H         1 <1>         0.0327 
     67 H32         2.6486   10.5329   -1.3044 H         1 <1>         0.0622 
     68 H33         2.7387   13.1523   -0.7317 H         1 <1>         0.0622 
     69 H34         4.0974   11.4996   -2.8845 H         1 <1>         0.0327 
     70 H35         6.5755   11.2911   -2.5779 H         1 <1>         0.0560 
     71 H36         7.2931   11.6452   -0.9906 H         1 <1>         0.0560 
     72 H37         8.1566   13.1070   -2.5847 H         1 <1>         0.2094 
     73 H38         3.9532   11.4338    0.3879 H         1 <1>         0.0233 
     74 H39         5.6747   11.2942    0.6795 H         1 <1>         0.0233 
     75 H40         4.9164   10.2632   -0.5701 H         1 <1>         0.0233 
     76 H41        -0.9461   11.9431   -1.6065 H         1 <1>         0.0233 
     77 H42         0.0340   13.2528   -0.9104 H         1 <1>         0.0233 
     78 H43        -1.0359   12.3251    0.1251 H         1 <1>         0.0233 
     79 H44         0.8284   11.5240   -3.1895 H         1 <1>         0.2099 
     80 H45         2.0698   14.3888   -2.5938 H         1 <1>         0.2099 
     81 H46         5.4237   13.2818   -3.8696 H         1 <1>         0.0233 
     82 H47         4.5815   14.5094   -2.8853 H         1 <1>         0.0233 
     83 H48         3.7171   13.5922   -4.1587 H         1 <1>         0.0233 
@<TRIPOS>BOND
     1    2    1 1    
     2    2    3 1    
     3    3    4 1    
     4    4    5 1    
     5    6    5 1    
     6    1    6 1    
     7    6    7 1    
     8    7    8 1    
     9    8    9 1    
    10   10    9 1    
    11   11   10 1    
    12   11   12 2    
    13    5   11 1    
    14    7   13 1    
    15   13   14 1    
    16   14   15 1    
    17   16   15 1    
    18    8   16 1    
    19   16   17 1    
    20   17   18 1    
    21   19   18 1    
    22   15   19 1    
    23    2   20 1    
    24    3   21 1    
    25   28   22 1    
    26    6   23 1    
    27   15   24 1    
    28   19   25 1    
    29   25   26 1    
    30   26   27 1    
    31   27   28 1    
    32   22   29 1    
    33   29   30 1    
    34   22   31 1    
    35   25   32 1    
    36   26   33 1    
    37   27   34 1    
    38   28   35 1    
    39    1   36 1    
    40    1   37 1    
    41    2   38 1    
    42    3   39 1    
    43    4   40 1    
    44    4   41 1    
    45    5   42 1    
    46    7   43 1    
    47    8   44 1    
    48    9   45 1    
    49    9   46 1    
    50   13   47 1    
    51   13   48 1    
    52   14   49 1    
    53   14   50 1    
    54   16   51 1    
    55   17   52 1    
    56   17   53 1    
    57   18   54 1    
    58   18   55 1    
    59   19   56 1    
    60   20   57 1    
    61   21   58 1    
    62   22   59 1    
    63   23   60 1    
    64   23   61 1    
    65   23   62 1    
    66   24   63 1    
    67   24   64 1    
    68   24   65 1    
    69   25   66 1    
    70   26   67 1    
    71   27   68 1    
    72   28   69 1    
    73   29   70 1    
    74   29   71 1    
    75   30   72 1    
    76   31   73 1    
    77   31   74 1    
    78   31   75 1    
    79   32   76 1    
    80   32   77 1    
    81   32   78 1    
    82   33   79 1    
    83   34   80 1    
    84   35   81 1    
    85   35   82 1    
    86   35   83 1    
@<TRIPOS>SUBSTRUCTURE
     1 ****        2 TEMP              0 ****  ****    0 ROOT 
@<TRIPOS>NORMAL
@<TRIPOS>FF_PBC
FORCE_FIELD_SETUP_FEATURE Force Field Setup information
v1.0  0 0.000000 0.000000 0.000000 0.000000 0.000000 0.000000 NONE 0 0 0 0 1 0 0 0 0 0 0 0 0
