#	Name:			PISM00645
#	Creating user name:	baoopengkun
#	Creation time:		Sat Jan 12 19:29:01 2019

#	Modifying user name:	baoopengkun
#	Modification time:	Sat Jan 12 19:30:51 2019

@<TRIPOS>MOLECULE
PISM00645
   18    18     1     1     0
SMALL
GAST_HUCK


@<TRIPOS>ATOM
      1 Cl1        -9.0089   -3.4426   -0.0550 Cl        1 <1>        -0.0722 
      2 C2         -7.3516   -2.8811    0.0263 C.ar      1 <1>         0.0548 
      3 C3         -6.3041   -3.7877    0.2072 C.ar      1 <1>         0.0117 
      4 N4         -5.0273   -3.3536    0.2555 N.ar      1 <1>        -0.2801 
      5 C5         -4.7121   -2.0521    0.0926 C.ar      1 <1>         0.1358 
      6 C6         -5.7292   -1.0965   -0.0293 C.ar      1 <1>        -0.0109 
      7 C7         -7.0597   -1.5201   -0.0869 C.ar      1 <1>        -0.0387 
      8 N8         -3.3934   -1.7444    0.0753 N.pl3     1 <1>        -0.2110 
      9 C9         -2.8868   -0.8212   -0.7027 C.2       1 <1>         0.3255 
     10 O10        -3.5779   -0.1877   -1.4851 O.2       1 <1>        -0.3359 
     11 C11        -1.4278   -0.5151   -0.6798 C.2       1 <1>         0.3486 
     12 O12        -0.8283   -0.2735   -1.7148 O.2       1 <1>        -0.3283 
     13 O13        -0.7262   -0.4889    0.4616 O.3       1 <1>        -0.2821 
     14 H1         -6.5129   -4.8469    0.3095 H         1 <1>         0.0792 
     15 H2         -5.5061   -0.0361   -0.0681 H         1 <1>         0.0625 
     16 H3         -7.8614   -0.8003   -0.2162 H         1 <1>         0.0708 
     17 H4         -2.7694   -2.3154    0.6615 H         1 <1>         0.2162 
     18 H5         -1.2430   -0.5693    1.2532 H         1 <1>         0.2542 
@<TRIPOS>BOND
     1    2    1 1    
     2    2    3 ar   
     3    3    4 ar   
     4    4    5 ar   
     5    5    6 ar   
     6    6    7 ar   
     7    2    7 ar   
     8    5    8 1    
     9    8    9 1    
    10    9   10 2    
    11    9   11 1    
    12   11   12 2    
    13   11   13 1    
    14    3   14 1    
    15    6   15 1    
    16    7   16 1    
    17    8   17 1    
    18   13   18 1    
@<TRIPOS>SUBSTRUCTURE
     1 ****        2 TEMP              0 ****  ****    0 ROOT 
@<TRIPOS>NORMAL
@<TRIPOS>FF_PBC
FORCE_FIELD_SETUP_FEATURE Force Field Setup information
v1.0  0 0.000000 0.000000 0.000000 0.000000 0.000000 0.000000 NONE 0 0 0 0 1 0 0 0 0 0 0 0 0
