#	Name:			PISM00584.2
#	Creating user name:	baoopengkun
#	Creation time:		Mon Dec 10 10:56:11 2018

#	Modifying user name:	baoopengkun
#	Modification time:	Mon Dec 10 10:56:39 2018

@<TRIPOS>MOLECULE
PISM00584.2
   42    44     1     2     0
SMALL
GAST_HUCK


@<TRIPOS>ATOM
      1 C1         -8.7652   10.1933   -4.9264 C.ar      1 <1>        -0.0103 
      2 C2         -8.8660   11.5491   -5.2514 C.ar      1 <1>        -0.0135 
      3 C3         -8.0010   12.4824   -4.6705 C.ar      1 <1>         0.0314 
      4 C4         -7.0251   12.0458   -3.7689 C.ar      1 <1>        -0.0135 
      5 C5         -6.9193   10.6891   -3.4494 C.ar      1 <1>        -0.0103 
      6 C6         -7.7913    9.7567   -4.0210 C.ar      1 <1>         0.0719 
      7 C7         -8.1244   13.9717   -5.0158 C.3       1 <1>         0.2089 
      8 O8         -8.4960   14.1121   -6.4001 O.3       1 <1>        -0.3715 
      9 C9         -7.4762   14.8755   -7.0563 C.3       1 <1>         0.0674 
     10 C10        -6.2400   14.5381   -6.2007 C.3       1 <1>         0.0755 
     11 O11        -6.8539   14.6323   -4.9141 O.3       1 <1>        -0.3685 
     12 C12        -9.1566   14.6361   -4.0819 C.3       1 <1>         0.1150 
     13 N13       -10.4132   13.9131   -4.1849 N.pl3     1 <1>        -0.1794 
     14 C14       -11.2928   13.9874   -5.1357 C.2       1 <1>         0.1272 
     15 N15       -12.2529   13.2170   -4.8915 N.2       1 <1>        -0.2870 
     16 C16       -12.0430   12.5293   -3.6470 C.2       1 <1>         0.0618 
     17 N17       -10.9113   13.0134   -3.2915 N.2       1 <1>        -0.1906 
     18 C18        -7.6551    8.2786   -3.6394 C.3       1 <1>         0.3942 
     19 F19        -7.6092    8.1658   -2.2849 F         1 <1>        -0.2083 
     20 F20        -6.4983    7.7943   -4.1639 F         1 <1>        -0.2083 
     21 F21        -8.6981    7.5412   -4.1071 F         1 <1>        -0.2083 
     22 C22        -5.0632   15.5382   -6.3281 C.3       1 <1>        -0.0255 
     23 C23        -4.4452   15.5291   -7.7522 C.3       1 <1>        -0.0535 
     24 C24        -3.2283   16.4866   -7.8417 C.3       1 <1>        -0.0652 
     25 H1         -9.4491    9.4850   -5.3838 H         1 <1>         0.0897 
     26 H2         -9.6231   11.8755   -5.9574 H         1 <1>         0.0896 
     27 H3         -6.3468   12.7601   -3.3123 H         1 <1>         0.0896 
     28 H4         -6.1548   10.3578   -2.7528 H         1 <1>         0.0897 
     29 H5         -7.7218   15.9458   -6.9675 H         1 <1>         0.0577 
     30 H6         -7.3812   14.6015   -8.1178 H         1 <1>         0.0577 
     31 H7         -5.9086   13.5030   -6.3949 H         1 <1>         0.0610 
     32 H8         -9.2855   15.6902   -4.3700 H         1 <1>         0.0618 
     33 H9         -8.7932   14.5922   -3.0443 H         1 <1>         0.0618 
     34 H10       -11.2168   14.6172   -6.0218 H         1 <1>         0.1361 
     35 H11       -12.6723   11.7976   -3.1425 H         1 <1>         0.0863 
     36 H12        -4.2962   15.2547   -5.5894 H         1 <1>         0.0290 
     37 H13        -5.4181   16.5511   -6.0789 H         1 <1>         0.0290 
     38 H14        -5.2004   15.8457   -8.4899 H         1 <1>         0.0263 
     39 H15        -4.1195   14.5067   -8.0064 H         1 <1>         0.0263 
     40 H16        -2.8054   16.4685   -8.8587 H         1 <1>         0.0230 
     41 H17        -2.4443   16.1802   -7.1316 H         1 <1>         0.0230 
     42 H18        -3.5339   17.5184   -7.6076 H         1 <1>         0.0230 
@<TRIPOS>BOND
     1    2    1 ar   
     2    2    3 ar   
     3    3    4 ar   
     4    4    5 ar   
     5    5    6 ar   
     6    1    6 ar   
     7    3    7 1    
     8    7    8 1    
     9    8    9 1    
    10    9   10 1    
    11   10   11 1    
    12    7   11 1    
    13    7   12 1    
    14   12   13 1    
    15   13   14 1    
    16   14   15 2    
    17   15   16 1    
    18   16   17 2    
    19   13   17 1    
    20    6   18 1    
    21   18   19 1    
    22   18   20 1    
    23   18   21 1    
    24   10   22 1    
    25   22   23 1    
    26   23   24 1    
    27    1   25 1    
    28    2   26 1    
    29    4   27 1    
    30    5   28 1    
    31    9   29 1    
    32    9   30 1    
    33   10   31 1    
    34   12   32 1    
    35   12   33 1    
    36   14   34 1    
    37   16   35 1    
    38   22   36 1    
    39   22   37 1    
    40   23   38 1    
    41   23   39 1    
    42   24   40 1    
    43   24   41 1    
    44   24   42 1    
@<TRIPOS>SUBSTRUCTURE
     1 ****        2 TEMP              0 ****  ****    0 ROOT 
@<TRIPOS>NORMAL
@<TRIPOS>FF_PBC
FORCE_FIELD_SETUP_FEATURE Force Field Setup information
v1.0  0 0.000000 0.000000 0.000000 0.000000 0.000000 0.000000 NONE 0 0 0 0 1 0 0 0 0 0 0 0 0
@<TRIPOS>RENDERING_ATTRS
ANTIALIASED_LINES 
*
