#	Name:			PISM01113
#	Creating user name:	Qinrunwen
#	Creation time:		Tue Apr 02 20:47:00 2019

#	Modifying user name:	Qinrunwen
#	Modification time:	Tue Apr 02 20:48:57 2019

@<TRIPOS>MOLECULE
PISM01113
   39    43     1     1     0
SMALL
GAST_HUCK


@<TRIPOS>ATOM
      1 C1         14.9615    5.7019    0.0563 C.ar      1 <1>        -0.0655 
      2 C2         14.6635    4.3540    0.2771 C.ar      1 <1>        -0.0790 
      3 C3         13.9561    3.9655    1.4162 C.ar      1 <1>        -0.0768 
      4 C4         13.5123    4.9437    2.3066 C.ar      1 <1>        -0.0348 
      5 C5         13.7889    6.2911    2.0653 C.ar      1 <1>         0.1189 
      6 C6         14.5909    6.6848    0.9859 C.ar      1 <1>         0.0083 
      7 C7         15.0132    8.1715    0.9203 C.3       1 <1>         0.0568 
      8 C8         13.8132    9.0268    1.3862 C.ar      1 <1>         0.0083 
      9 C9         12.9555    8.4718    2.3443 C.ar      1 <1>         0.1189 
     10 O10        13.2530    7.2438    2.9262 O.3       1 <1>        -0.2640 
     11 C11        11.7918    9.1382    2.7402 C.ar      1 <1>        -0.0348 
     12 C12        11.4871   10.3996    2.2264 C.ar      1 <1>        -0.0768 
     13 C13        12.3756   10.9986    1.3330 C.ar      1 <1>        -0.0790 
     14 C14        13.5266   10.3209    0.9219 C.ar      1 <1>        -0.0655 
     15 C15        15.6440    8.6662   -0.4171 C.3       1 <1>         0.1277 
     16 C16        16.8615    7.9677   -0.9759 C.2       1 <1>         0.1612 
     17 C17        16.7122    7.7310   -2.4584 C.ar      1 <1>         0.0528 
     18 C18        15.4291    8.1053   -2.8299 C.ar      1 <1>         0.0528 
     19 C19        14.7129    8.6075   -1.6036 C.2       1 <1>         0.1612 
     20 C20        17.6152    7.2291   -3.3966 C.ar      1 <1>        -0.0379 
     21 C21        17.1809    7.1084   -4.7241 C.ar      1 <1>        -0.0517 
     22 C22        15.8821    7.4869   -5.0968 C.ar      1 <1>        -0.0517 
     23 C23        14.9844    7.9900   -4.1473 C.ar      1 <1>        -0.0379 
     24 O24        17.8327    7.6430   -0.3130 O.2       1 <1>        -0.3705 
     25 O25        13.5365    8.9238   -1.5809 O.2       1 <1>        -0.3705 
     26 H1         15.4786    5.9487   -0.8567 H         1 <1>         0.0527 
     27 H2         14.9804    3.6028   -0.4388 H         1 <1>         0.0509 
     28 H3         13.7521    2.9151    1.6057 H         1 <1>         0.0534 
     29 H4         12.9500    4.6582    3.1902 H         1 <1>         0.0527 
     30 H5         15.7860    8.2987    1.6944 H         1 <1>         0.0622 
     31 H6         11.1205    8.6710    3.4510 H         1 <1>         0.0527 
     32 H7         10.5736   10.9100    2.5171 H         1 <1>         0.0534 
     33 H8         12.1728   11.9969    0.9585 H         1 <1>         0.0509 
     34 H9         14.1781   10.8440    0.2363 H         1 <1>         0.0527 
     35 H10        16.0129    9.6945   -0.2993 H         1 <1>         0.0777 
     36 H11        18.6195    6.9431   -3.1003 H         1 <1>         0.0684 
     37 H12        17.8602    6.7165   -5.4749 H         1 <1>         0.0665 
     38 H13        15.5685    7.3916   -6.1320 H         1 <1>         0.0665 
     39 H14        13.9765    8.2851   -4.4186 H         1 <1>         0.0684 
@<TRIPOS>BOND
     1    2    1 ar   
     2    2    3 ar   
     3    3    4 ar   
     4    4    5 ar   
     5    5    6 ar   
     6    1    6 ar   
     7    6    7 1    
     8    7    8 1    
     9    8    9 ar   
    10    9   10 1    
    11   10    5 1    
    12    9   11 ar   
    13   11   12 ar   
    14   12   13 ar   
    15   13   14 ar   
    16    8   14 ar   
    17    7   15 1    
    18   15   16 1    
    19   16   17 1    
    20   17   18 ar   
    21   18   19 1    
    22   15   19 1    
    23   17   20 ar   
    24   20   21 ar   
    25   21   22 ar   
    26   22   23 ar   
    27   18   23 ar   
    28   16   24 2    
    29   19   25 2    
    30    1   26 1    
    31    2   27 1    
    32    3   28 1    
    33    4   29 1    
    34    7   30 1    
    35   11   31 1    
    36   12   32 1    
    37   13   33 1    
    38   14   34 1    
    39   15   35 1    
    40   20   36 1    
    41   21   37 1    
    42   22   38 1    
    43   23   39 1    
@<TRIPOS>SUBSTRUCTURE
     1 ****        2 TEMP              0 ****  ****    0 ROOT 
@<TRIPOS>NORMAL
@<TRIPOS>FF_PBC
FORCE_FIELD_SETUP_FEATURE Force Field Setup information
v1.0  0 0.000000 0.000000 0.000000 0.000000 0.000000 0.000000 NONE 0 0 0 0 1 0 0 0 0 0 0 0 0
