#	Name:			PISM00025
#	Creating user name:	baoopengkun
#	Creation time:		Sat Nov 17 17:09:15 2018

#	Modifying user name:	baoopengkun
#	Modification time:	Sat Nov 17 17:12:54 2018

@<TRIPOS>MOLECULE
PISM00025
   33    35     1     2     0
SMALL
GAST_HUCK


@<TRIPOS>ATOM
      1 C1         -6.9484    0.2638    5.1725 C.ar      1 <1>        -0.0700 
      2 C2         -6.9525    1.5351    4.5832 C.ar      1 <1>        -0.0748 
      3 C3         -5.9358    2.4654    4.8536 C.ar      1 <1>        -0.0746 
      4 C4         -4.8801    2.1572    5.7226 C.ar      1 <1>        -0.0658 
      5 C5         -4.8853    0.8905    6.3038 C.ar      1 <1>        -0.0120 
      6 C6         -5.8918   -0.0266    6.0341 C.ar      1 <1>        -0.0069 
      7 C7         -5.4954   -1.2241    6.8604 C.2       1 <1>         0.1513 
      8 C8         -4.2478   -0.8250    7.5365 C.2       1 <1>         0.1638 
      9 N9         -3.9935    0.3630    7.1621 N.2       1 <1>        -0.3259 
     10 N10        -6.1144   -2.3317    6.9435 N.2       1 <1>        -0.0950 
     11 N11        -5.6025   -3.3896    7.7906 N.am      1 <1>        -0.0969 
     12 C12        -6.2145   -4.5926    7.8178 C.2       1 <1>         0.3670 
     13 O13        -7.2228   -4.7620    7.1540 O.2       1 <1>        -0.3636 
     14 N14        -5.7574   -5.6205    8.5680 N.am      1 <1>        -0.2063 
     15 C15        -4.5424   -5.5686    9.3006 C.ar      1 <1>         0.0681 
     16 C16        -3.3364   -5.2838    8.6512 C.ar      1 <1>        -0.0414 
     17 C17        -2.1512   -5.1830    9.3854 C.ar      1 <1>        -0.0756 
     18 C18        -2.1643   -5.4030   10.7657 C.ar      1 <1>        -0.0773 
     19 C19        -3.3614   -5.7284   11.4101 C.ar      1 <1>        -0.0756 
     20 C20        -4.5485   -5.8136   10.6768 C.ar      1 <1>        -0.0414 
     21 O21        -3.5877   -1.6322    8.3658 O.3       1 <1>        -0.3100 
     22 H1         -7.7269   -0.4648    4.9727 H         1 <1>         0.0569 
     23 H2         -7.7569    1.8042    3.9056 H         1 <1>         0.0532 
     24 H3         -5.9665    3.4426    4.3817 H         1 <1>         0.0552 
     25 H4         -4.0895    2.8673    5.9391 H         1 <1>         0.0549 
     26 H5         -4.8071   -3.2087    8.3707 H         1 <1>         0.2926 
     27 H6         -6.3152   -6.4506    8.6020 H         1 <1>         0.2274 
     28 H7         -3.3185   -5.1439    7.5749 H         1 <1>         0.0502 
     29 H8         -1.2202   -4.9358    8.8840 H         1 <1>         0.0577 
     30 H9         -1.2444   -5.3229   11.3372 H         1 <1>         0.0487 
     31 H10        -3.3689   -5.9139   12.4800 H         1 <1>         0.0577 
     32 H11        -5.4781   -6.0664   11.1763 H         1 <1>         0.0502 
     33 H12        -2.8166   -1.1729    8.6826 H         1 <1>         0.2583 
@<TRIPOS>BOND
     1    2    1 ar   
     2    2    3 ar   
     3    3    4 ar   
     4    4    5 ar   
     5    5    6 ar   
     6    1    6 ar   
     7    6    7 1    
     8    7    8 1    
     9    8    9 2    
    10    5    9 1    
    11    7   10 2    
    12   10   11 1    
    13   11   12 am   
    14   12   13 2    
    15   12   14 am   
    16   14   15 1    
    17   15   16 ar   
    18   16   17 ar   
    19   17   18 ar   
    20   18   19 ar   
    21   19   20 ar   
    22   15   20 ar   
    23    8   21 1    
    24    1   22 1    
    25    2   23 1    
    26    3   24 1    
    27    4   25 1    
    28   11   26 1    
    29   14   27 1    
    30   16   28 1    
    31   17   29 1    
    32   18   30 1    
    33   19   31 1    
    34   20   32 1    
    35   21   33 1    
@<TRIPOS>SUBSTRUCTURE
     1 ****        2 TEMP              0 ****  ****    0 ROOT 
@<TRIPOS>NORMAL
@<TRIPOS>FF_PBC
FORCE_FIELD_SETUP_FEATURE Force Field Setup information
v1.0  0 0.000000 0.000000 0.000000 0.000000 0.000000 0.000000 NONE 0 0 0 0 1 0 0 0 0 0 0 0 0
@<TRIPOS>RENDERING_ATTRS
ANTIALIASED_LINES 
*
